@<TRIPOS>MOLECULE
MOL
2652 1768 1 0 0
SMALL
USER_CHARGES


@<TRIPOS>ATOM
  1    OW  24.8200  25.8200   0.4300 O     1   SOL  -0.8340
  2   HW1  25.6500  25.7100  -0.0300 H     1   SOL   0.4170
  3   HW2  24.8400  25.1500   1.1100 H     1   SOL   0.4170
  4    OW  21.5300  15.6000  14.6700 O     1   SOL  -0.8340
  5   HW1  20.6900  15.1400  14.7100 H     1   SOL   0.4170
  6   HW2  21.3400  16.4700  15.0300 H     1   SOL   0.4170
  7    OW   5.4500  12.5300  17.4900 O     1   SOL  -0.8340
  8   HW1   4.8100  13.0400  17.0000 H     1   SOL   0.4170
  9   HW2   6.2900  12.7400  17.0800 H     1   SOL   0.4170
 10    OW  24.8300  17.5200  20.9000 O     1   SOL  -0.8340
 11   HW1  23.9200  17.3700  21.1500 H     1   SOL   0.4170
 12   HW2  25.2000  16.6500  20.7700 H     1   SOL   0.4170
 13    OW   4.0700  28.3400   0.2000 O     1   SOL  -0.8340
 14   HW1   4.8800  27.8500   0.2900 H     1   SOL   0.4170
 15   HW2   4.3100  29.2400   0.4200 H     1   SOL   0.4170
 16    OW   6.0300  29.3000  23.0500 O     1   SOL  -0.8340
 17   HW1   5.6200  29.5400  22.2100 H     1   SOL   0.4170
 18   HW2   5.3600  29.5100  23.7100 H     1   SOL   0.4170
 19    OW  17.9800  27.9600   0.8300 O     1   SOL  -0.8340
 20   HW1  18.4800  27.2900   0.3800 H     1   SOL   0.4170
 21   HW2  18.2000  27.8400   1.7600 H     1   SOL   0.4170
 22    OW   1.4300   9.6200  19.7500 O     1   SOL  -0.8340
 23   HW1   1.8700  10.3300  19.2900 H     1   SOL   0.4170
 24   HW2   0.6500   9.4400  19.2200 H     1   SOL   0.4170
 25    OW   3.4200   9.8100  24.9100 O     1   SOL  -0.8340
 26   HW1   3.9700   9.1500  25.3200 H     1   SOL   0.4170
 27   HW2   2.5700   9.3900  24.8100 H     1   SOL   0.4170
 28    OW  27.0500   6.2700  22.0100 O     1   SOL  -0.8340
 29   HW1  26.8800   6.2200  21.0700 H     1   SOL   0.4170
 30   HW2  27.3000   5.3800  22.2500 H     1   SOL   0.4170
 31    OW  22.8300  22.5600   3.3500 O     1   SOL  -0.8340
 32   HW1  22.2900  22.7100   2.5700 H     1   SOL   0.4170
 33   HW2  22.4700  21.7700   3.7500 H     1   SOL   0.4170
 34    OW  27.6300  14.0900   9.9400 O     1   SOL  -0.8340
 35   HW1  26.7500  14.1400   9.5600 H     1   SOL   0.4170
 36   HW2  27.4800  13.9900  10.8800 H     1   SOL   0.4170
 37    OW   7.6700  26.3400   5.8000 O     1   SOL  -0.8340
 38   HW1   8.3900  25.7300   5.6600 H     1   SOL   0.4170
 39   HW2   8.0500  27.2100   5.6600 H     1   SOL   0.4170
 40    OW  26.6700  22.9600  29.6300 O     1   SOL  -0.8340
 41   HW1  26.8600  22.2100  29.0600 H     1   SOL   0.4170
 42   HW2  25.8400  22.7300  30.0500 H     1   SOL   0.4170
 43    OW  21.4200  22.7000   6.9600 O     1   SOL  -0.8340
 44   HW1  22.3200  22.6900   7.3100 H     1   SOL   0.4170
 45   HW2  21.1400  21.7900   6.9700 H     1   SOL   0.4170
 46    OW  23.4800  25.2300  11.2300 O     1   SOL  -0.8340
 47   HW1  23.3900  26.1800  11.1500 H     1   SOL   0.4170
 48   HW2  23.4900  25.0800  12.1800 H     1   SOL   0.4170
 49    OW   8.6900  19.5200  10.0500 O     1   SOL  -0.8340
 50   HW1   9.4800  18.9800  10.1600 H     1   SOL   0.4170
 51   HW2   7.9700  18.8900  10.0300 H     1   SOL   0.4170
 52    OW   7.6500  24.2700  24.5100 O     1   SOL  -0.8340
 53   HW1   7.1900  24.3300  25.3500 H     1   SOL   0.4170
 54   HW2   7.1900  24.8900  23.9400 H     1   SOL   0.4170
 55    OW  20.8700  22.5000   1.1100 O     1   SOL  -0.8340
 56   HW1  21.3800  22.7900   0.3500 H     1   SOL   0.4170
 57   HW2  19.9600  22.6300   0.8400 H     1   SOL   0.4170
 58    OW   8.9400   0.7800   4.2100 O     1   SOL  -0.8340
 59   HW1   9.7700   0.7500   3.7500 H     1   SOL   0.4170
 60   HW2   8.9300   1.6300   4.6500 H     1   SOL   0.4170
 61    OW   8.5500   3.0200  22.5300 O     1   SOL  -0.8340
 62   HW1   8.7900   3.9000  22.2500 H     1   SOL   0.4170
 63   HW2   9.3200   2.7000  23.0200 H     1   SOL   0.4170
 64    OW   5.8200   6.2300  11.1000 O     1   SOL  -0.8340
 65   HW1   5.9400   7.1800  11.1300 H     1   SOL   0.4170
 66   HW2   4.8800   6.1000  11.1900 H     1   SOL   0.4170
 67    OW  15.7100  27.2000  27.4200 O     1   SOL  -0.8340
 68   HW1  15.7900  27.7300  28.2100 H     1   SOL   0.4170
 69   HW2  16.1300  26.3700  27.6500 H     1   SOL   0.4170
 70    OW  27.0600   9.0800  18.2400 O     1   SOL  -0.8340
 71   HW1  26.5600   9.8800  18.3900 H     1   SOL   0.4170
 72   HW2  27.8300   9.3700  17.7400 H     1   SOL   0.4170
 73    OW   6.5100  12.4100   4.9700 O     1   SOL  -0.8340
 74   HW1   5.8400  12.7900   4.3900 H     1   SOL   0.4170
 75   HW2   6.0600  11.6800   5.4100 H     1   SOL   0.4170
 76    OW  12.1300  17.1000  11.5800 O     1   SOL  -0.8340
 77   HW1  13.0300  16.7800  11.4800 H     1   SOL   0.4170
 78   HW2  11.9000  16.9000  12.4900 H     1   SOL   0.4170
 79    OW  22.2600  18.4000  24.0500 O     1   SOL  -0.8340
 80   HW1  21.6000  17.7900  23.7400 H     1   SOL   0.4170
 81   HW2  22.0900  18.4800  24.9900 H     1   SOL   0.4170
 82    OW  16.9200  13.4600   0.4500 O     1   SOL  -0.8340
 83   HW1  17.4400  13.4200  -0.3600 H     1   SOL   0.4170
 84   HW2  17.5700  13.5600   1.1400 H     1   SOL   0.4170
 85    OW  21.8300  20.4200   4.3100 O     1   SOL  -0.8340
 86   HW1  22.5400  19.7900   4.4900 H     1   SOL   0.4170
 87   HW2  21.1600  20.2200   4.9700 H     1   SOL   0.4170
 88    OW  10.2800  27.8200   2.6300 O     1   SOL  -0.8340
 89   HW1  10.6500  27.6300   3.4900 H     1   SOL   0.4170
 90   HW2  11.0400  27.9800   2.0700 H     1   SOL   0.4170
 91    OW  12.9500   2.9800  25.4800 O     1   SOL  -0.8340
 92   HW1  13.8900   2.7800  25.4500 H     1   SOL   0.4170
 93   HW2  12.6500   2.8300  24.5800 H     1   SOL   0.4170
 94    OW   3.1500   6.8200  11.6200 O     1   SOL  -0.8340
 95   HW1   2.4000   6.7100  11.0400 H     1   SOL   0.4170
 96   HW2   3.1000   7.7400  11.9000 H     1   SOL   0.4170
 97    OW  10.1300  24.7500   6.4400 O     1   SOL  -0.8340
 98   HW1  10.5900  24.2800   5.7400 H     1   SOL   0.4170
 99   HW2  10.7600  24.7900   7.1600 H     1   SOL   0.4170
100    OW   1.7300   0.2000  27.6200 O     1   SOL  -0.8340
101   HW1   1.9400  -0.7200  27.4300 H     1   SOL   0.4170
102   HW2   2.5700   0.6000  27.8500 H     1   SOL   0.4170
103    OW  19.6500  23.6700  23.6500 O     1   SOL  -0.8340
104   HW1  18.8000  23.8700  23.2600 H     1   SOL   0.4170
105   HW2  20.0400  23.0300  23.0500 H     1   SOL   0.4170
106    OW   9.7600  21.9800  24.0400 O     1   SOL  -0.8340
107   HW1   8.9000  22.4100  24.1000 H     1   SOL   0.4170
108   HW2   9.5700  21.1300  23.6300 H     1   SOL   0.4170
109    OW   7.2600   5.8700  23.3100 O     1   SOL  -0.8340
110   HW1   6.3100   5.8200  23.2400 H     1   SOL   0.4170
111   HW2   7.4400   5.7000  24.2400 H     1   SOL   0.4170
112    OW   1.5600   9.3300   0.5400 O     1   SOL  -0.8340
113   HW1   2.3800   9.6500   0.1500 H     1   SOL   0.4170
114   HW2   1.7000   9.4000   1.4800 H     1   SOL   0.4170
115    OW  13.0600   4.9800   5.9100 O     1   SOL  -0.8340
116   HW1  12.4300   4.7500   6.5900 H     1   SOL   0.4170
117   HW2  13.9000   4.7200   6.2700 H     1   SOL   0.4170
118    OW  22.7000   9.7800  14.6700 O     1   SOL  -0.8340
119   HW1  22.4000  10.6300  14.9700 H     1   SOL   0.4170
120   HW2  23.5300   9.6300  15.1200 H     1   SOL   0.4170
121    OW   2.1000  14.0800  18.2800 O     1   SOL  -0.8340
122   HW1   1.8300  14.2400  19.1900 H     1   SOL   0.4170
123   HW2   1.5300  14.6500  17.7700 H     1   SOL   0.4170
124    OW  20.1400   5.1800   0.0900 O     1   SOL  -0.8340
125   HW1  20.0600   4.8600   0.9900 H     1   SOL   0.4170
126   HW2  20.9400   4.7800  -0.2400 H     1   SOL   0.4170
127    OW  28.5500  17.0000  20.0800 O     1   SOL  -0.8340
128   HW1  28.7600  16.5000  20.8600 H     1   SOL   0.4170
129   HW2  27.6900  16.6800  19.8100 H     1   SOL   0.4170
130    OW   2.3000  27.8400  13.0300 O     1   SOL  -0.8340
131   HW1   1.7700  27.5800  12.2800 H     1   SOL   0.4170
132   HW2   2.6700  27.0200  13.3600 H     1   SOL   0.4170
133    OW  28.1800  10.6100   9.9600 O     1   SOL  -0.8340
134   HW1  28.4600  11.0800   9.1800 H     1   SOL   0.4170
135   HW2  27.3900  10.1300   9.6900 H     1   SOL   0.4170
136    OW   4.7900   2.8100   5.8800 O     1   SOL  -0.8340
137   HW1   4.5400   3.6900   5.5600 H     1   SOL   0.4170
138   HW2   4.9800   2.9400   6.8100 H     1   SOL   0.4170
139    OW  20.8000  26.9300  15.6100 O     1   SOL  -0.8340
140   HW1  21.1500  26.0900  15.3100 H     1   SOL   0.4170
141   HW2  20.0900  27.1300  14.9900 H     1   SOL   0.4170
142    OW   8.8100  10.8000  15.9500 O     1   SOL  -0.8340
143   HW1   8.5900  11.6000  16.4200 H     1   SOL   0.4170
144   HW2   8.0200  10.6000  15.4500 H     1   SOL   0.4170
145    OW   2.3500  24.7000   9.2500 O     1   SOL  -0.8340
146   HW1   2.9400  25.1800   9.8200 H     1   SOL   0.4170
147   HW2   1.7700  24.2200   9.8400 H     1   SOL   0.4170
148    OW   2.5200  22.2000  16.7700 O     1   SOL  -0.8340
149   HW1   2.0800  21.3500  16.7400 H     1   SOL   0.4170
150   HW2   2.0100  22.7500  16.1700 H     1   SOL   0.4170
151    OW  11.7200   0.4400  21.9400 O     1   SOL  -0.8340
152   HW1  12.3100   0.0500  22.5800 H     1   SOL   0.4170
153   HW2  10.8400   0.2400  22.2700 H     1   SOL   0.4170
154    OW   5.4800  24.2300   7.4400 O     1   SOL  -0.8340
155   HW1   6.3700  23.9300   7.2400 H     1   SOL   0.4170
156   HW2   5.2000  23.6600   8.1600 H     1   SOL   0.4170
157    OW   5.4900  24.9200   4.8400 O     1   SOL  -0.8340
158   HW1   5.0000  24.9000   5.6600 H     1   SOL   0.4170
159   HW2   6.2600  25.4500   5.0300 H     1   SOL   0.4170
160    OW   2.1600  13.8400  22.9600 O     1   SOL  -0.8340
161   HW1   2.0200  12.9500  22.6400 H     1   SOL   0.4170
162   HW2   2.9100  13.7600  23.5500 H     1   SOL   0.4170
163    OW  17.0600   9.0600  14.9900 O     1   SOL  -0.8340
164   HW1  17.8700   9.4300  15.3300 H     1   SOL   0.4170
165   HW2  16.8200   8.3900  15.6300 H     1   SOL   0.4170
166    OW  16.1100  21.5400  17.9000 O     1   SOL  -0.8340
167   HW1  15.7500  21.5700  17.0100 H     1   SOL   0.4170
168   HW2  15.3800  21.2200  18.4400 H     1   SOL   0.4170
169    OW  15.4500  12.5500  10.9600 O     1   SOL  -0.8340
170   HW1  14.5600  12.3600  11.2500 H     1   SOL   0.4170
171   HW2  15.5400  13.5000  11.0900 H     1   SOL   0.4170
172    OW  24.3500   5.5900  14.5400 O     1   SOL  -0.8340
173   HW1  23.4500   5.4900  14.8700 H     1   SOL   0.4170
174   HW2  24.7000   6.3300  15.0400 H     1   SOL   0.4170
175    OW  12.0200  20.5600   2.2300 O     1   SOL  -0.8340
176   HW1  12.5300  20.4300   1.4300 H     1   SOL   0.4170
177   HW2  11.6200  21.4200   2.1100 H     1   SOL   0.4170
178    OW   6.6900  15.5000  15.3700 O     1   SOL  -0.8340
179   HW1   7.0600  15.7000  14.5100 H     1   SOL   0.4170
180   HW2   6.7600  16.3200  15.8600 H     1   SOL   0.4170
181    OW  13.3700  24.9100   2.5000 O     1   SOL  -0.8340
182   HW1  14.2200  24.5100   2.2900 H     1   SOL   0.4170
183   HW2  13.5900  25.8100   2.7700 H     1   SOL   0.4170
184    OW  25.3100  14.1500  28.5300 O     1   SOL  -0.8340
185   HW1  25.0700  13.4600  29.1400 H     1   SOL   0.4170
186   HW2  25.9200  13.7300  27.9200 H     1   SOL   0.4170
187    OW   1.8600  10.3300   7.3100 O     1   SOL  -0.8340
188   HW1   2.5000  10.5700   6.6500 H     1   SOL   0.4170
189   HW2   2.3200  10.4000   8.1500 H     1   SOL   0.4170
190    OW   1.4200   8.1500  23.9800 O     1   SOL  -0.8340
191   HW1   1.8500   7.5300  23.3900 H     1   SOL   0.4170
192   HW2   0.7100   7.6500  24.3700 H     1   SOL   0.4170
193    OW  14.1700  26.1900  14.3200 O     1   SOL  -0.8340
194   HW1  13.3600  26.5800  14.6600 H     1   SOL   0.4170
195   HW2  14.8700  26.7400  14.6800 H     1   SOL   0.4170
196    OW   0.5100   2.4600  26.3000 O     1   SOL  -0.8340
197   HW1   0.8900   1.7800  26.8600 H     1   SOL   0.4170
198   HW2   1.2100   3.1000  26.1800 H     1   SOL   0.4170
199    OW  16.2500  22.1200   3.6600 O     1   SOL  -0.8340
200   HW1  16.0400  21.1900   3.5900 H     1   SOL   0.4170
201   HW2  16.2700  22.4300   2.7500 H     1   SOL   0.4170
202    OW  27.8400  20.6500   8.8100 O     1   SOL  -0.8340
203   HW1  27.5500  21.5300   9.0300 H     1   SOL   0.4170
204   HW2  27.1000  20.2600   8.3500 H     1   SOL   0.4170
205    OW  13.1700  13.4100   1.6700 O     1   SOL  -0.8340
206   HW1  12.4500  13.4500   2.2900 H     1   SOL   0.4170
207   HW2  13.9500  13.6600   2.1700 H     1   SOL   0.4170
208    OW  10.5600  14.3300   1.6500 O     1   SOL  -0.8340
209   HW1   9.8600  13.8200   2.0600 H     1   SOL   0.4170
210   HW2  10.1500  14.7100   0.8700 H     1   SOL   0.4170
211    OW  16.9300  11.9000  13.4900 O     1   SOL  -0.8340
212   HW1  16.5900  11.5800  12.6500 H     1   SOL   0.4170
213   HW2  16.2100  11.7700  14.1000 H     1   SOL   0.4170
214    OW  11.8900   4.7900  10.8300 O     1   SOL  -0.8340
215   HW1  12.5500   5.2500  10.3100 H     1   SOL   0.4170
216   HW2  12.3800   4.4600  11.5900 H     1   SOL   0.4170
217    OW  16.9400   0.8400  16.8600 O     1   SOL  -0.8340
218   HW1  16.0400   0.6300  16.6000 H     1   SOL   0.4170
219   HW2  17.2500   0.0500  17.3000 H     1   SOL   0.4170
220    OW  15.8300  11.0600   1.7300 O     1   SOL  -0.8340
221   HW1  16.1800  11.8700   1.3400 H     1   SOL   0.4170
222   HW2  15.2700  10.6900   1.0400 H     1   SOL   0.4170
223    OW   9.2800   8.3800  23.0800 O     1   SOL  -0.8340
224   HW1   9.4500   7.4400  23.0800 H     1   SOL   0.4170
225   HW2   8.6000   8.5100  23.7400 H     1   SOL   0.4170
226    OW  12.7500   6.9900   1.7300 O     1   SOL  -0.8340
227   HW1  12.9900   6.0800   1.8600 H     1   SOL   0.4170
228   HW2  13.5300   7.4800   2.0100 H     1   SOL   0.4170
229    OW  25.2700  16.1100  25.1200 O     1   SOL  -0.8340
230   HW1  25.9900  16.7400  25.2300 H     1   SOL   0.4170
231   HW2  25.7100  15.2800  24.9600 H     1   SOL   0.4170
232    OW  22.3100   7.9300  19.5900 O     1   SOL  -0.8340
233   HW1  23.1400   7.4500  19.6600 H     1   SOL   0.4170
234   HW2  22.5000   8.6400  18.9800 H     1   SOL   0.4170
235    OW   2.9800  25.4100  24.8600 O     1   SOL  -0.8340
236   HW1   3.1900  25.8300  24.0300 H     1   SOL   0.4170
237   HW2   2.1000  25.0700  24.7500 H     1   SOL   0.4170
238    OW   3.3800  13.7900  11.7100 O     1   SOL  -0.8340
239   HW1   3.5600  14.7100  11.9100 H     1   SOL   0.4170
240   HW2   2.4200  13.7300  11.7300 H     1   SOL   0.4170
241    OW  23.3100  24.8400   4.9500 O     1   SOL  -0.8340
242   HW1  23.4600  25.5800   4.3500 H     1   SOL   0.4170
243   HW2  23.1400  24.1000   4.3700 H     1   SOL   0.4170
244    OW   3.2500   2.5500  28.6400 O     1   SOL  -0.8340
245   HW1   3.4000   2.1000  29.4700 H     1   SOL   0.4170
246   HW2   3.2400   3.4800  28.8700 H     1   SOL   0.4170
247    OW  18.2200  14.3900   8.9200 O     1   SOL  -0.8340
248   HW1  17.4200  14.7100   8.5000 H     1   SOL   0.4170
249   HW2  18.3500  13.5100   8.5500 H     1   SOL   0.4170
250    OW  24.7400  28.6900  29.6400 O     1   SOL  -0.8340
251   HW1  23.9700  28.2100  29.9400 H     1   SOL   0.4170
252   HW2  25.1800  28.1000  29.0300 H     1   SOL   0.4170
253    OW   3.5300   4.9100   1.0300 O     1   SOL  -0.8340
254   HW1   4.2100   5.4200   1.4800 H     1   SOL   0.4170
255   HW2   2.7100   5.2100   1.4200 H     1   SOL   0.4170
256    OW   8.5000  11.4000   1.4600 O     1   SOL  -0.8340
257   HW1   9.2400  10.8400   1.6900 H     1   SOL   0.4170
258   HW2   8.5200  12.1000   2.1200 H     1   SOL   0.4170
259    OW  10.6200  13.3100   6.2300 O     1   SOL  -0.8340
260   HW1  10.6400  12.9800   5.3400 H     1   SOL   0.4170
261   HW2  11.2500  12.7800   6.7000 H     1   SOL   0.4170
262    OW  14.3500   5.8500   9.3000 O     1   SOL  -0.8340
263   HW1  14.5400   5.1400   8.7000 H     1   SOL   0.4170
264   HW2  15.0900   5.8700   9.9000 H     1   SOL   0.4170
265    OW  17.1100  24.9900  28.3400 O     1   SOL  -0.8340
266   HW1  16.9500  24.1700  27.8900 H     1   SOL   0.4170
267   HW2  17.9900  24.9100  28.7000 H     1   SOL   0.4170
268    OW   6.0700   0.9100  26.5000 O     1   SOL  -0.8340
269   HW1   6.0000   0.9000  27.4500 H     1   SOL   0.4170
270   HW2   5.2500   0.5000  26.2000 H     1   SOL   0.4170
271    OW  20.2500  19.2300  28.6100 O     1   SOL  -0.8340
272   HW1  19.6000  19.3300  29.3100 H     1   SOL   0.4170
273   HW2  21.0900  19.2600  29.0600 H     1   SOL   0.4170
274    OW  21.7000   0.5100  16.0100 O     1   SOL  -0.8340
275   HW1  22.6100   0.7200  15.8000 H     1   SOL   0.4170
276   HW2  21.7400  -0.4000  16.3200 H     1   SOL   0.4170
277    OW  25.9400   7.5200  15.7400 O     1   SOL  -0.8340
278   HW1  26.4900   7.9800  16.3800 H     1   SOL   0.4170
279   HW2  26.3200   7.7600  14.8900 H     1   SOL   0.4170
280    OW   5.9500  20.5600   8.0800 O     1   SOL  -0.8340
281   HW1   5.9900  20.1100   7.2300 H     1   SOL   0.4170
282   HW2   6.1800  19.8800   8.7200 H     1   SOL   0.4170
283    OW  13.3100  18.2700  19.2200 O     1   SOL  -0.8340
284   HW1  13.4200  19.2100  19.1200 H     1   SOL   0.4170
285   HW2  12.9700  17.9800  18.3700 H     1   SOL   0.4170
286    OW   8.7200  23.9100  13.2200 O     1   SOL  -0.8340
287   HW1   9.1800  24.4600  12.5900 H     1   SOL   0.4170
288   HW2   8.7500  23.0400  12.8400 H     1   SOL   0.4170
289    OW   0.8800   0.1100   2.2000 O     1   SOL  -0.8340
290   HW1   0.2400   0.8200   2.0800 H     1   SOL   0.4170
291   HW2   0.5500  -0.3900   2.9500 H     1   SOL   0.4170
292    OW  20.3900   9.4800   0.0300 O     1   SOL  -0.8340
293   HW1  20.3500   8.9500   0.8200 H     1   SOL   0.4170
294   HW2  20.1700  10.3700   0.3100 H     1   SOL   0.4170
295    OW   4.3600   1.0500   9.1800 O     1   SOL  -0.8340
296   HW1   4.3400   0.2100   9.6200 H     1   SOL   0.4170
297   HW2   3.4600   1.1800   8.8700 H     1   SOL   0.4170
298    OW   3.8600  10.1800  28.5600 O     1   SOL  -0.8340
299   HW1   4.3000   9.5000  28.0400 H     1   SOL   0.4170
300   HW2   4.2900  10.9900  28.3100 H     1   SOL   0.4170
301    OW   3.5400   4.7100   4.4300 O     1   SOL  -0.8340
302   HW1   2.7800   5.1000   4.0100 H     1   SOL   0.4170
303   HW2   4.2900   5.1800   4.0700 H     1   SOL   0.4170
304    OW  28.9800   7.4000  19.8800 O     1   SOL  -0.8340
305   HW1  29.4400   6.8400  19.2600 H     1   SOL   0.4170
306   HW2  28.0600   7.3800  19.5900 H     1   SOL   0.4170
307    OW  16.3600  24.6100   7.8600 O     1   SOL  -0.8340
308   HW1  16.5700  23.7200   7.5900 H     1   SOL   0.4170
309   HW2  15.8000  24.5100   8.6300 H     1   SOL   0.4170
310    OW  25.9100  23.8900  15.5200 O     1   SOL  -0.8340
311   HW1  25.3600  24.3300  16.1600 H     1   SOL   0.4170
312   HW2  26.6300  24.5100  15.3500 H     1   SOL   0.4170
313    OW  28.8400   1.0500   8.4000 O     1   SOL  -0.8340
314   HW1  28.3900   1.1200   9.2400 H     1   SOL   0.4170
315   HW2  28.9600   1.9600   8.1100 H     1   SOL   0.4170
316    OW  24.5900  15.6100  15.0900 O     1   SOL  -0.8340
317   HW1  24.2900  16.4900  15.3200 H     1   SOL   0.4170
318   HW2  23.8500  15.2100  14.6500 H     1   SOL   0.4170
319    OW  26.6700  14.3100  12.3600 O     1   SOL  -0.8340
320   HW1  26.3600  15.1700  12.6500 H     1   SOL   0.4170
321   HW2  26.2400  13.6900  12.9500 H     1   SOL   0.4170
322    OW  28.9500  21.1800  20.6700 O     1   SOL  -0.8340
323   HW1  28.9700  21.6600  21.4900 H     1   SOL   0.4170
324   HW2  28.6700  20.3000  20.9100 H     1   SOL   0.4170
325    OW  21.9500  17.6900   1.9500 O     1   SOL  -0.8340
326   HW1  22.8100  17.3000   2.0800 H     1   SOL   0.4170
327   HW2  21.4400  17.0200   1.5000 H     1   SOL   0.4170
328    OW  15.0700   7.3400   6.7900 O     1   SOL  -0.8340
329   HW1  14.4000   7.0600   6.1700 H     1   SOL   0.4170
330   HW2  14.7000   7.1500   7.6500 H     1   SOL   0.4170
331    OW  21.1400   6.3900  17.5800 O     1   SOL  -0.8340
332   HW1  21.3500   7.0600  18.2300 H     1   SOL   0.4170
333   HW2  21.0200   5.5900  18.0800 H     1   SOL   0.4170
334    OW  14.1600  29.2300  29.1400 O     1   SOL  -0.8340
335   HW1  14.4500  29.8400  29.8200 H     1   SOL   0.4170
336   HW2  14.0200  29.7800  28.3700 H     1   SOL   0.4170
337    OW  17.4000  17.6200  12.5400 O     1   SOL  -0.8340
338   HW1  17.3000  16.8200  12.0200 H     1   SOL   0.4170
339   HW2  17.8600  17.3400  13.3300 H     1   SOL   0.4170
340    OW   1.2400   1.9700  10.8200 O     1   SOL  -0.8340
341   HW1   1.2900   1.1800  10.2900 H     1   SOL   0.4170
342   HW2   0.3100   2.0800  11.0000 H     1   SOL   0.4170
343    OW  20.0600  12.5500  11.8600 O     1   SOL  -0.8340
344   HW1  19.6500  12.3600  11.0100 H     1   SOL   0.4170
345   HW2  20.8800  13.0000  11.6300 H     1   SOL   0.4170
346    OW   3.9800  17.5600  26.3200 O     1   SOL  -0.8340
347   HW1   4.2900  17.9200  27.1500 H     1   SOL   0.4170
348   HW2   4.7600  17.5200  25.7600 H     1   SOL   0.4170
349    OW  24.3300  27.6900   3.7800 O     1   SOL  -0.8340
350   HW1  24.1100  27.5600   4.7100 H     1   SOL   0.4170
351   HW2  25.2200  28.0400   3.8000 H     1   SOL   0.4170
352    OW   8.7900  29.5600  25.8400 O     1   SOL  -0.8340
353   HW1   7.9100  29.8500  26.0600 H     1   SOL   0.4170
354   HW2   8.7000  28.6200  25.6800 H     1   SOL   0.4170
355    OW   2.3500  13.4600  26.9500 O     1   SOL  -0.8340
356   HW1   3.2100  13.1100  27.2000 H     1   SOL   0.4170
357   HW2   1.7200  12.8500  27.3300 H     1   SOL   0.4170
358    OW   2.2300  19.2100  13.3100 O     1   SOL  -0.8340
359   HW1   1.4400  19.7400  13.3300 H     1   SOL   0.4170
360   HW2   2.8800  19.7100  13.8100 H     1   SOL   0.4170
361    OW  18.1400   3.2700  17.4400 O     1   SOL  -0.8340
362   HW1  18.1700   3.6500  16.5700 H     1   SOL   0.4170
363   HW2  17.6700   2.4400  17.3300 H     1   SOL   0.4170
364    OW  28.5200  25.3700   7.6800 O     1   SOL  -0.8340
365   HW1  28.6000  25.3300   6.7300 H     1   SOL   0.4170
366   HW2  28.9400  26.1900   7.9200 H     1   SOL   0.4170
367    OW  26.3300  17.8300   7.6600 O     1   SOL  -0.8340
368   HW1  26.6400  17.6200   8.5400 H     1   SOL   0.4170
369   HW2  26.7300  17.1700   7.1000 H     1   SOL   0.4170
370    OW   5.6300  11.2800   8.5500 O     1   SOL  -0.8340
371   HW1   6.2400  11.9700   8.8200 H     1   SOL   0.4170
372   HW2   6.1300  10.4700   8.6000 H     1   SOL   0.4170
373    OW  17.8200  22.5200   6.3900 O     1   SOL  -0.8340
374   HW1  17.3000  22.3900   5.6000 H     1   SOL   0.4170
375   HW2  18.2300  21.6700   6.5500 H     1   SOL   0.4170
376    OW  28.3000  16.5500  27.5900 O     1   SOL  -0.8340
377   HW1  28.3500  17.2500  28.2400 H     1   SOL   0.4170
378   HW2  28.0600  16.9900  26.7800 H     1   SOL   0.4170
379    OW  15.1900  14.5900   3.2400 O     1   SOL  -0.8340
380   HW1  15.4500  15.2600   2.6200 H     1   SOL   0.4170
381   HW2  16.0200  14.1600   3.4900 H     1   SOL   0.4170
382    OW  18.0200   7.1600  28.5700 O     1   SOL  -0.8340
383   HW1  17.3200   7.3600  29.1900 H     1   SOL   0.4170
384   HW2  18.7000   6.7400  29.0900 H     1   SOL   0.4170
385    OW  29.2800   7.8300  15.5700 O     1   SOL  -0.8340
386   HW1  29.4400   7.4000  16.4100 H     1   SOL   0.4170
387   HW2  29.8900   8.5700  15.5600 H     1   SOL   0.4170
388    OW  14.7700  10.3800  28.9400 O     1   SOL  -0.8340
389   HW1  14.1000  10.2400  28.2600 H     1   SOL   0.4170
390   HW2  15.2600  11.1400  28.6300 H     1   SOL   0.4170
391    OW   1.2900  18.0300  16.0500 O     1   SOL  -0.8340
392   HW1   0.9600  17.2300  16.4600 H     1   SOL   0.4170
393   HW2   2.0800  17.7600  15.5900 H     1   SOL   0.4170
394    OW   7.7900   8.1200  27.3000 O     1   SOL  -0.8340
395   HW1   7.7300   8.6900  26.5300 H     1   SOL   0.4170
396   HW2   8.2800   8.6300  27.9400 H     1   SOL   0.4170
397    OW   5.2700  28.7400  12.8400 O     1   SOL  -0.8340
398   HW1   5.8400  29.2300  12.2500 H     1   SOL   0.4170
399   HW2   4.3900  29.0500  12.6300 H     1   SOL   0.4170
400    OW  28.3600  13.6100   3.3800 O     1   SOL  -0.8340
401   HW1  27.5100  13.7000   3.8100 H     1   SOL   0.4170
402   HW2  28.2700  14.1000   2.5600 H     1   SOL   0.4170
403    OW  16.0700  10.3200  18.5400 O     1   SOL  -0.8340
404   HW1  15.6000   9.5900  18.9500 H     1   SOL   0.4170
405   HW2  16.1700  10.9700  19.2400 H     1   SOL   0.4170
406    OW   2.8200  27.1000  27.0600 O     1   SOL  -0.8340
407   HW1   2.5700  26.5400  26.3300 H     1   SOL   0.4170
408   HW2   3.0500  26.4900  27.7600 H     1   SOL   0.4170
409    OW   7.1900   9.0300  18.3300 O     1   SOL  -0.8340
410   HW1   7.9000   8.9800  17.6900 H     1   SOL   0.4170
411   HW2   6.7300   8.1900  18.2500 H     1   SOL   0.4170
412    OW  25.5700  29.3300  24.8900 O     1   SOL  -0.8340
413   HW1  26.3200  29.0400  25.4100 H     1   SOL   0.4170
414   HW2  24.8400  29.3700  25.5100 H     1   SOL   0.4170
415    OW  16.2300   4.1300  11.6000 O     1   SOL  -0.8340
416   HW1  17.1200   4.2700  11.9200 H     1   SOL   0.4170
417   HW2  15.7500   4.9000  11.8900 H     1   SOL   0.4170
418    OW  28.9700  22.9900  16.4000 O     1   SOL  -0.8340
419   HW1  28.8100  22.2900  17.0300 H     1   SOL   0.4170
420   HW2  28.1500  23.0700  15.9100 H     1   SOL   0.4170
421    OW  18.8300   4.3300  12.1100 O     1   SOL  -0.8340
422   HW1  19.1700   5.0800  12.5900 H     1   SOL   0.4170
423   HW2  19.6000   3.9300  11.6900 H     1   SOL   0.4170
424    OW  21.7400  13.2100  28.3800 O     1   SOL  -0.8340
425   HW1  22.3100  13.8700  28.0000 H     1   SOL   0.4170
426   HW2  22.1300  12.3700  28.1100 H     1   SOL   0.4170
427    OW   7.0900   6.3600   8.7500 O     1   SOL  -0.8340
428   HW1   6.3800   6.1500   9.3500 H     1   SOL   0.4170
429   HW2   7.0200   5.7300   8.0400 H     1   SOL   0.4170
430    OW   1.6500  16.0300  27.2400 O     1   SOL  -0.8340
431   HW1   2.3600  16.3900  26.7100 H     1   SOL   0.4170
432   HW2   1.9000  15.1200  27.3900 H     1   SOL   0.4170
433    OW  21.4500   9.9200  10.7900 O     1   SOL  -0.8340
434   HW1  21.7300  10.8300  10.7000 H     1   SOL   0.4170
435   HW2  20.8500   9.7800  10.0500 H     1   SOL   0.4170
436    OW   4.6400  19.3400   3.0100 O     1   SOL  -0.8340
437   HW1   3.9800  18.9500   2.4400 H     1   SOL   0.4170
438   HW2   4.4600  20.2800   2.9900 H     1   SOL   0.4170
439    OW  24.8300   6.3500  23.5600 O     1   SOL  -0.8340
440   HW1  25.0600   6.2300  22.6300 H     1   SOL   0.4170
441   HW2  24.4900   7.2400  23.6100 H     1   SOL   0.4170
442    OW   8.7800  29.4600  22.5400 O     1   SOL  -0.8340
443   HW1   7.8800  29.2200  22.7700 H     1   SOL   0.4170
444   HW2   8.9300  30.2900  22.9800 H     1   SOL   0.4170
445    OW  12.7200  18.7100  27.7700 O     1   SOL  -0.8340
446   HW1  12.4200  18.9900  26.9000 H     1   SOL   0.4170
447   HW2  11.9400  18.7400  28.3200 H     1   SOL   0.4170
448    OW  19.4700  13.9300  18.5400 O     1   SOL  -0.8340
449   HW1  18.7200  13.4300  18.2200 H     1   SOL   0.4170
450   HW2  19.8000  13.4200  19.2800 H     1   SOL   0.4170
451    OW  17.5900   6.6400   3.5000 O     1   SOL  -0.8340
452   HW1  18.2200   7.1500   2.9800 H     1   SOL   0.4170
453   HW2  16.7400   7.0600   3.3200 H     1   SOL   0.4170
454    OW  11.8900  23.8900   0.4400 O     1   SOL  -0.8340
455   HW1  11.8100  24.7100  -0.0400 H     1   SOL   0.4170
456   HW2  12.3000  24.1300   1.2700 H     1   SOL   0.4170
457    OW  11.2200  10.3200  13.2500 O     1   SOL  -0.8340
458   HW1  11.3600   9.3900  13.4200 H     1   SOL   0.4170
459   HW2  11.3200  10.7400  14.1000 H     1   SOL   0.4170
460    OW  11.7400  16.5200   3.4000 O     1   SOL  -0.8340
461   HW1  11.4300  15.8800   2.7600 H     1   SOL   0.4170
462   HW2  11.1900  17.2900   3.2600 H     1   SOL   0.4170
463    OW  11.4600   1.2800   3.2600 O     1   SOL  -0.8340
464   HW1  11.9600   1.0400   2.4800 H     1   SOL   0.4170
465   HW2  11.7200   2.1800   3.4500 H     1   SOL   0.4170
466    OW   6.1400   2.6100  24.0300 O     1   SOL  -0.8340
467   HW1   7.0300   2.7300  23.7000 H     1   SOL   0.4170
468   HW2   6.2300   1.9400  24.7100 H     1   SOL   0.4170
469    OW  19.6900   4.4300  23.6700 O     1   SOL  -0.8340
470   HW1  20.6400   4.5700  23.7200 H     1   SOL   0.4170
471   HW2  19.4200   4.3100  24.5800 H     1   SOL   0.4170
472    OW  22.6600  14.0400  21.0000 O     1   SOL  -0.8340
473   HW1  22.5500  14.1900  21.9400 H     1   SOL   0.4170
474   HW2  22.3900  13.1300  20.8700 H     1   SOL   0.4170
475    OW  12.7900  11.9300  12.0000 O     1   SOL  -0.8340
476   HW1  12.5500  11.1100  12.4200 H     1   SOL   0.4170
477   HW2  12.0300  12.5000  12.1300 H     1   SOL   0.4170
478    OW   7.2800  20.5400   3.8700 O     1   SOL  -0.8340
479   HW1   7.3600  20.4000   2.9300 H     1   SOL   0.4170
480   HW2   6.4400  21.0000   3.9700 H     1   SOL   0.4170
481    OW   9.1400  26.0900  26.6700 O     1   SOL  -0.8340
482   HW1   9.1700  25.1400  26.5600 H     1   SOL   0.4170
483   HW2   8.2800  26.3400  26.3400 H     1   SOL   0.4170
484    OW  14.7700   4.0700  20.2000 O     1   SOL  -0.8340
485   HW1  14.8700   3.1400  20.0100 H     1   SOL   0.4170
486   HW2  15.5200   4.2900  20.7500 H     1   SOL   0.4170
487    OW   2.7700  28.7000   5.8000 O     1   SOL  -0.8340
488   HW1   3.0900  28.0200   6.3900 H     1   SOL   0.4170
489   HW2   3.5600  29.0700   5.4000 H     1   SOL   0.4170
490    OW   7.0200   2.9800   0.4300 O     1   SOL  -0.8340
491   HW1   7.2600   3.3300  -0.4300 H     1   SOL   0.4170
492   HW2   7.6900   3.3200   1.0200 H     1   SOL   0.4170
493    OW  22.4900   2.0500  24.0300 O     1   SOL  -0.8340
494   HW1  22.4000   1.9900  23.0800 H     1   SOL   0.4170
495   HW2  22.7400   2.9600  24.1900 H     1   SOL   0.4170
496    OW  14.6700  16.4300   5.7500 O     1   SOL  -0.8340
497   HW1  14.8200  16.0600   4.8800 H     1   SOL   0.4170
498   HW2  13.8800  16.9600   5.6500 H     1   SOL   0.4170
499    OW  27.5600  21.5400  18.3400 O     1   SOL  -0.8340
500   HW1  27.9900  21.2000  19.1200 H     1   SOL   0.4170
501   HW2  27.1400  22.3500  18.6200 H     1   SOL   0.4170
502    OW  14.9400  23.8900  15.6300 O     1   SOL  -0.8340
503   HW1  14.6000  24.5400  15.0200 H     1   SOL   0.4170
504   HW2  15.8300  24.1800  15.8200 H     1   SOL   0.4170
505    OW  29.1200  28.9800  28.9000 O     1   SOL  -0.8340
506   HW1  29.6400  28.3300  29.3600 H     1   SOL   0.4170
507   HW2  29.7600  29.5700  28.5000 H     1   SOL   0.4170
508    OW  17.0500   2.7900  28.3400 O     1   SOL  -0.8340
509   HW1  17.7200   2.8900  27.6600 H     1   SOL   0.4170
510   HW2  16.9600   1.8400  28.4500 H     1   SOL   0.4170
511    OW   8.8400   3.8000   2.1900 O     1   SOL  -0.8340
512   HW1   9.6700   3.4200   1.9200 H     1   SOL   0.4170
513   HW2   8.6900   3.4300   3.0600 H     1   SOL   0.4170
514    OW   8.5400   9.0900   4.0500 O     1   SOL  -0.8340
515   HW1   9.2400   9.0500   3.4000 H     1   SOL   0.4170
516   HW2   8.9900   9.1800   4.8900 H     1   SOL   0.4170
517    OW   9.4500  25.2200   2.0000 O     1   SOL  -0.8340
518   HW1   9.5000  25.9000   2.6700 H     1   SOL   0.4170
519   HW2   9.6500  25.6700   1.1800 H     1   SOL   0.4170
520    OW  12.8900   5.7400  24.5400 O     1   SOL  -0.8340
521   HW1  11.9600   5.9700  24.5500 H     1   SOL   0.4170
522   HW2  12.9100   4.7900  24.4700 H     1   SOL   0.4170
523    OW  27.5700   0.9000   4.5900 O     1   SOL  -0.8340
524   HW1  27.0900   1.1100   5.3900 H     1   SOL   0.4170
525   HW2  28.2600   0.2900   4.8700 H     1   SOL   0.4170
526    OW   3.7500  16.4600  12.1000 O     1   SOL  -0.8340
527   HW1   4.5500  16.5400  11.5800 H     1   SOL   0.4170
528   HW2   3.3100  17.3000  12.0000 H     1   SOL   0.4170
529    OW   7.4700   9.3500  25.0300 O     1   SOL  -0.8340
530   HW1   7.5900  10.2000  25.4400 H     1   SOL   0.4170
531   HW2   6.8100   9.5000  24.3500 H     1   SOL   0.4170
532    OW  26.6200  27.2500  12.1800 O     1   SOL  -0.8340
533   HW1  26.1900  28.1100  12.2000 H     1   SOL   0.4170
534   HW2  26.2200  26.8100  11.4200 H     1   SOL   0.4170
535    OW  11.3700   6.6600   7.6800 O     1   SOL  -0.8340
536   HW1  12.1200   6.9500   8.2100 H     1   SOL   0.4170
537   HW2  10.6100   7.0700   8.1000 H     1   SOL   0.4170
538    OW  21.5200   3.0700  21.3600 O     1   SOL  -0.8340
539   HW1  20.8900   3.7800  21.5000 H     1   SOL   0.4170
540   HW2  21.5400   2.9500  20.4100 H     1   SOL   0.4170
541    OW  21.9100  12.4500  14.4800 O     1   SOL  -0.8340
542   HW1  21.7500  13.0800  13.7800 H     1   SOL   0.4170
543   HW2  21.0900  11.9500  14.5500 H     1   SOL   0.4170
544    OW   1.3100  24.2300   2.5400 O     1   SOL  -0.8340
545   HW1   2.1900  24.6000   2.5100 H     1   SOL   0.4170
546   HW2   0.9600  24.3600   1.6600 H     1   SOL   0.4170
547    OW   3.9800   0.2400  21.2800 O     1   SOL  -0.8340
548   HW1   3.9500  -0.6300  20.8700 H     1   SOL   0.4170
549   HW2   3.0800   0.3900  21.5800 H     1   SOL   0.4170
550    OW  29.6300  11.9400  27.2400 O     1   SOL  -0.8340
551   HW1  29.7200  11.0400  27.5500 H     1   SOL   0.4170
552   HW2  29.3900  11.8500  26.3200 H     1   SOL   0.4170
553    OW   4.3100  23.4100  19.5900 O     1   SOL  -0.8340
554   HW1   3.4300  23.7700  19.4800 H     1   SOL   0.4170
555   HW2   4.4100  22.7800  18.8700 H     1   SOL   0.4170
556    OW  17.7000   4.6500  21.3600 O     1   SOL  -0.8340
557   HW1  18.5100   4.9800  21.7400 H     1   SOL   0.4170
558   HW2  17.8600   3.7100  21.2500 H     1   SOL   0.4170
559    OW  29.1800  10.9000  17.2400 O     1   SOL  -0.8340
560   HW1  29.0700  11.7700  16.8700 H     1   SOL   0.4170
561   HW2  30.0500  10.6200  16.9700 H     1   SOL   0.4170
562    OW   2.0100   2.4500   4.8800 O     1   SOL  -0.8340
563   HW1   2.6100   3.1100   4.5500 H     1   SOL   0.4170
564   HW2   2.3400   2.2300   5.7500 H     1   SOL   0.4170
565    OW  25.1500  23.8100   2.1000 O     1   SOL  -0.8340
566   HW1  26.0400  23.6800   2.4300 H     1   SOL   0.4170
567   HW2  24.5900  23.3700   2.7400 H     1   SOL   0.4170
568    OW  16.2000  17.1600   2.5200 O     1   SOL  -0.8340
569   HW1  16.9200  16.8500   3.0700 H     1   SOL   0.4170
570   HW2  16.6000  17.2700   1.6500 H     1   SOL   0.4170
571    OW  28.3800  28.3900  26.2300 O     1   SOL  -0.8340
572   HW1  28.5500  28.6400  27.1400 H     1   SOL   0.4170
573   HW2  29.1400  28.7200  25.7400 H     1   SOL   0.4170
574    OW  12.5700  23.4600  12.9800 O     1   SOL  -0.8340
575   HW1  12.2200  22.9000  12.2800 H     1   SOL   0.4170
576   HW2  12.0100  23.2700  13.7300 H     1   SOL   0.4170
577    OW   4.9400  13.9200  20.1200 O     1   SOL  -0.8340
578   HW1   5.5800  13.2200  20.2200 H     1   SOL   0.4170
579   HW2   4.1900  13.5000  19.7000 H     1   SOL   0.4170
580    OW  10.0200   1.9200   0.5700 O     1   SOL  -0.8340
581   HW1   9.3100   1.2800   0.6000 H     1   SOL   0.4170
582   HW2  10.4400   1.7700  -0.2800 H     1   SOL   0.4170
583    OW   9.3000  28.4200  17.9900 O     1   SOL  -0.8340
584   HW1   9.1400  29.0900  18.6600 H     1   SOL   0.4170
585   HW2   9.3000  27.6000  18.4800 H     1   SOL   0.4170
586    OW  17.9700  23.1400  25.9900 O     1   SOL  -0.8340
587   HW1  18.4700  23.0900  25.1700 H     1   SOL   0.4170
588   HW2  17.0600  23.0900  25.7100 H     1   SOL   0.4170
589    OW   1.6300   5.8200   2.8500 O     1   SOL  -0.8340
590   HW1   1.6700   6.7500   2.5900 H     1   SOL   0.4170
591   HW2   0.7700   5.5300   2.5600 H     1   SOL   0.4170
592    OW  23.5300   9.4400   8.4200 O     1   SOL  -0.8340
593   HW1  23.5000   8.4900   8.4100 H     1   SOL   0.4170
594   HW2  22.7600   9.7100   8.9200 H     1   SOL   0.4170
595    OW  26.2400  11.7600   6.1500 O     1   SOL  -0.8340
596   HW1  27.0200  11.6200   6.6900 H     1   SOL   0.4170
597   HW2  26.4500  11.3600   5.3100 H     1   SOL   0.4170
598    OW  16.2700  27.8300   4.5700 O     1   SOL  -0.8340
599   HW1  16.1000  28.4000   5.3200 H     1   SOL   0.4170
600   HW2  17.0000  28.2600   4.1100 H     1   SOL   0.4170
601    OW   1.8500  15.3100   8.2100 O     1   SOL  -0.8340
602   HW1   1.4900  15.5800   9.0500 H     1   SOL   0.4170
603   HW2   2.6600  14.8400   8.4400 H     1   SOL   0.4170
604    OW   0.6600  24.1300  11.2900 O     1   SOL  -0.8340
605   HW1   0.3800  25.0400  11.3900 H     1   SOL   0.4170
606   HW2  -0.1300  23.6100  11.4100 H     1   SOL   0.4170
607    OW  11.8200  20.2500  25.4000 O     1   SOL  -0.8340
608   HW1  11.8000  19.7300  24.5900 H     1   SOL   0.4170
609   HW2  11.3300  21.0400  25.1800 H     1   SOL   0.4170
610    OW   9.3500  18.0600   2.7600 O     1   SOL  -0.8340
611   HW1   8.8000  18.8200   2.5600 H     1   SOL   0.4170
612   HW2   9.3000  17.9700   3.7100 H     1   SOL   0.4170
613    OW  23.8100  11.8000   7.2200 O     1   SOL  -0.8340
614   HW1  24.6300  11.7700   6.7200 H     1   SOL   0.4170
615   HW2  23.8200  11.0000   7.7500 H     1   SOL   0.4170
616    OW  25.3100  12.1700  13.9300 O     1   SOL  -0.8340
617   HW1  24.4000  12.0700  13.6500 H     1   SOL   0.4170
618   HW2  25.8000  11.5700  13.3600 H     1   SOL   0.4170
619    OW   8.1800  20.0900   1.1000 O     1   SOL  -0.8340
620   HW1   8.8900  20.6700   0.8300 H     1   SOL   0.4170
621   HW2   8.0200  19.5300   0.3300 H     1   SOL   0.4170
622    OW   7.4200   4.8800  13.2200 O     1   SOL  -0.8340
623   HW1   6.7100   4.3600  13.5900 H     1   SOL   0.4170
624   HW2   7.1100   5.1300  12.3500 H     1   SOL   0.4170
625    OW  14.3400  12.3600  17.5300 O     1   SOL  -0.8340
626   HW1  13.8800  12.7200  18.2900 H     1   SOL   0.4170
627   HW2  14.8000  11.5900  17.8800 H     1   SOL   0.4170
628    OW  10.1200   1.6000  24.3400 O     1   SOL  -0.8340
629   HW1  11.0100   1.6500  24.7100 H     1   SOL   0.4170
630   HW2   9.6300   1.1100  25.0000 H     1   SOL   0.4170
631    OW   3.1400  10.5900  10.0700 O     1   SOL  -0.8340
632   HW1   3.8500  11.0100   9.5900 H     1   SOL   0.4170
633   HW2   3.2700  10.8700  10.9800 H     1   SOL   0.4170
634    OW  25.2800   4.4800   5.2100 O     1   SOL  -0.8340
635   HW1  24.9700   5.2700   5.6300 H     1   SOL   0.4170
636   HW2  26.2100   4.6400   5.0500 H     1   SOL   0.4170
637    OW  23.5200  12.3800  11.0400 O     1   SOL  -0.8340
638   HW1  24.3700  12.0400  11.3300 H     1   SOL   0.4170
639   HW2  23.3300  13.1000  11.6300 H     1   SOL   0.4170
640    OW  24.5900  27.8700  14.5800 O     1   SOL  -0.8340
641   HW1  24.3800  28.6300  14.0400 H     1   SOL   0.4170
642   HW2  24.4000  28.1500  15.4700 H     1   SOL   0.4170
643    OW   4.7000  13.8800  15.2200 O     1   SOL  -0.8340
644   HW1   5.4100  14.5000  15.3500 H     1   SOL   0.4170
645   HW2   4.2600  14.1800  14.4200 H     1   SOL   0.4170
646    OW   6.2800  25.6300  13.0100 O     1   SOL  -0.8340
647   HW1   6.7200  25.6800  13.8600 H     1   SOL   0.4170
648   HW2   6.9500  25.9200  12.3800 H     1   SOL   0.4170
649    OW  15.8400  15.4200  20.1800 O     1   SOL  -0.8340
650   HW1  15.9000  15.9200  19.3700 H     1   SOL   0.4170
651   HW2  16.0300  14.5200  19.9300 H     1   SOL   0.4170
652    OW  15.2500  19.4600  23.1000 O     1   SOL  -0.8340
653   HW1  16.0400  19.7600  23.5500 H     1   SOL   0.4170
654   HW2  15.2600  18.5100  23.2100 H     1   SOL   0.4170
655    OW  12.5700   4.9300  27.7700 O     1   SOL  -0.8340
656   HW1  12.5900   4.2100  27.1300 H     1   SOL   0.4170
657   HW2  13.4500   4.9300  28.1400 H     1   SOL   0.4170
658    OW   6.7200  27.3500  25.6300 O     1   SOL  -0.8340
659   HW1   6.6200  26.9700  24.7500 H     1   SOL   0.4170
660   HW2   5.9000  27.8100  25.7800 H     1   SOL   0.4170
661    OW   7.0300  17.0700  22.3500 O     1   SOL  -0.8340
662   HW1   7.4800  16.3000  22.7000 H     1   SOL   0.4170
663   HW2   7.2300  17.0600  21.4200 H     1   SOL   0.4170
664    OW   9.4300   9.2700  20.2000 O     1   SOL  -0.8340
665   HW1   9.3500   8.9700  21.1100 H     1   SOL   0.4170
666   HW2   8.6300   8.9800  19.7800 H     1   SOL   0.4170
667    OW   0.6900   7.2800   5.4400 O     1   SOL  -0.8340
668   HW1   0.0100   7.9200   5.6500 H     1   SOL   0.4170
669   HW2   1.0700   7.5900   4.6200 H     1   SOL   0.4170
670    OW   2.2900  21.2000  29.6200 O     1   SOL  -0.8340
671   HW1   1.9100  21.8200  30.2500 H     1   SOL   0.4170
672   HW2   3.2300  21.4000  29.6400 H     1   SOL   0.4170
673    OW  11.7100   7.4100  27.0800 O     1   SOL  -0.8340
674   HW1  12.4400   7.7400  26.5600 H     1   SOL   0.4170
675   HW2  11.9300   6.5000  27.2600 H     1   SOL   0.4170
676    OW  24.7900  25.9500  26.1000 O     1   SOL  -0.8340
677   HW1  23.9200  25.9400  26.4800 H     1   SOL   0.4170
678   HW2  25.1600  26.8000  26.3500 H     1   SOL   0.4170
679    OW   0.2300  16.7100  13.3700 O     1   SOL  -0.8340
680   HW1   0.7500  17.5100  13.4500 H     1   SOL   0.4170
681   HW2  -0.6000  17.0100  12.9900 H     1   SOL   0.4170
682    OW  19.6700   2.5300   4.9200 O     1   SOL  -0.8340
683   HW1  20.4200   2.4500   5.5100 H     1   SOL   0.4170
684   HW2  20.0400   2.8400   4.0900 H     1   SOL   0.4170
685    OW  14.0500  13.0900   8.6600 O     1   SOL  -0.8340
686   HW1  13.4000  12.5000   8.2700 H     1   SOL   0.4170
687   HW2  14.5200  12.5400   9.2800 H     1   SOL   0.4170
688    OW  18.2100  22.4900  21.2800 O     1   SOL  -0.8340
689   HW1  18.4900  22.6700  20.3900 H     1   SOL   0.4170
690   HW2  18.8400  21.8400  21.6100 H     1   SOL   0.4170
691    OW  26.5100  29.0500   2.5300 O     1   SOL  -0.8340
692   HW1  26.2100  29.2600   1.6500 H     1   SOL   0.4170
693   HW2  26.6500  29.9100   2.9400 H     1   SOL   0.4170
694    OW  11.6200  11.4800  15.6000 O     1   SOL  -0.8340
695   HW1  11.7800  11.0700  16.4500 H     1   SOL   0.4170
696   HW2  10.6700  11.5700  15.5600 H     1   SOL   0.4170
697    OW   1.1800  23.3500  19.4600 O     1   SOL  -0.8340
698   HW1   1.2700  23.6800  18.5600 H     1   SOL   0.4170
699   HW2   0.7700  22.4900  19.3600 H     1   SOL   0.4170
700    OW  12.8800  29.4100  24.5800 O     1   SOL  -0.8340
701   HW1  13.7000  28.9600  24.4000 H     1   SOL   0.4170
702   HW2  12.3400  28.7600  25.0300 H     1   SOL   0.4170
703    OW  23.6800  18.4400  15.7700 O     1   SOL  -0.8340
704   HW1  24.0900  18.2100  16.6000 H     1   SOL   0.4170
705   HW2  22.8300  18.8200  16.0300 H     1   SOL   0.4170
706    OW  24.9600  21.4200  15.2300 O     1   SOL  -0.8340
707   HW1  25.3500  22.2000  15.6100 H     1   SOL   0.4170
708   HW2  24.1000  21.3500  15.6500 H     1   SOL   0.4170
709    OW   7.4900   0.2300  11.5100 O     1   SOL  -0.8340
710   HW1   7.8500  -0.4500  10.9400 H     1   SOL   0.4170
711   HW2   7.6900   1.0500  11.0500 H     1   SOL   0.4170
712    OW  17.4100   0.7700  20.4700 O     1   SOL  -0.8340
713   HW1  17.1900   0.1700  21.1900 H     1   SOL   0.4170
714   HW2  16.5900   0.8700  19.9800 H     1   SOL   0.4170
715    OW   0.4200  12.5500   0.1200 O     1   SOL  -0.8340
716   HW1   0.2800  12.4300  -0.8200 H     1   SOL   0.4170
717   HW2   0.1400  13.4500   0.2900 H     1   SOL   0.4170
718    OW  20.8700  17.3000  26.9300 O     1   SOL  -0.8340
719   HW1  20.3100  17.2600  26.1600 H     1   SOL   0.4170
720   HW2  20.5700  18.0700  27.4100 H     1   SOL   0.4170
721    OW   6.1100  15.9000  10.3700 O     1   SOL  -0.8340
722   HW1   5.8100  16.0600   9.4800 H     1   SOL   0.4170
723   HW2   6.4200  16.7500  10.6800 H     1   SOL   0.4170
724    OW   8.5800  24.8100  18.6400 O     1   SOL  -0.8340
725   HW1   8.3600  24.2500  19.4000 H     1   SOL   0.4170
726   HW2   8.1500  24.3800  17.9000 H     1   SOL   0.4170
727    OW  14.9300   6.1300  12.8200 O     1   SOL  -0.8340
728   HW1  14.8100   7.0700  12.8800 H     1   SOL   0.4170
729   HW2  14.4000   5.7700  13.5200 H     1   SOL   0.4170
730    OW   6.4300  21.5800  28.4300 O     1   SOL  -0.8340
731   HW1   5.7100  22.0100  28.8800 H     1   SOL   0.4170
732   HW2   6.9900  21.2600  29.1400 H     1   SOL   0.4170
733    OW   4.0900  27.1700  20.8900 O     1   SOL  -0.8340
734   HW1   3.6000  26.4500  20.5000 H     1   SOL   0.4170
735   HW2   4.7400  27.4200  20.2300 H     1   SOL   0.4170
736    OW  13.1200   0.7700  26.9800 O     1   SOL  -0.8340
737   HW1  12.9900   1.6000  26.5200 H     1   SOL   0.4170
738   HW2  13.4600   0.1800  26.3100 H     1   SOL   0.4170
739    OW  23.5300   1.3500  19.4700 O     1   SOL  -0.8340
740   HW1  22.6700   1.4700  19.8700 H     1   SOL   0.4170
741   HW2  23.5700   0.4200  19.2600 H     1   SOL   0.4170
742    OW  13.4900  24.9600  21.6000 O     1   SOL  -0.8340
743   HW1  13.6300  24.9100  20.6600 H     1   SOL   0.4170
744   HW2  13.6500  24.0700  21.9200 H     1   SOL   0.4170
745    OW  16.7800  12.8200  16.3000 O     1   SOL  -0.8340
746   HW1  15.9400  12.5600  16.6900 H     1   SOL   0.4170
747   HW2  17.4300  12.5600  16.9500 H     1   SOL   0.4170
748    OW   1.7400   9.6600  16.1500 O     1   SOL  -0.8340
749   HW1   2.6100   9.2900  16.2800 H     1   SOL   0.4170
750   HW2   1.9000  10.5400  15.8100 H     1   SOL   0.4170
751    OW   9.7900   8.1700  17.3000 O     1   SOL  -0.8340
752   HW1   9.5400   8.6800  16.5300 H     1   SOL   0.4170
753   HW2   9.5900   7.2700  17.0700 H     1   SOL   0.4170
754    OW  10.2000   4.5300  14.2900 O     1   SOL  -0.8340
755   HW1  10.1500   3.9100  15.0200 H     1   SOL   0.4170
756   HW2  10.1300   3.9900  13.5100 H     1   SOL   0.4170
757    OW  11.1000  24.6500  17.3200 O     1   SOL  -0.8340
758   HW1  11.0500  24.8000  16.3800 H     1   SOL   0.4170
759   HW2  10.2400  24.9000  17.6600 H     1   SOL   0.4170
760    OW  25.5600   2.0800  23.8000 O     1   SOL  -0.8340
761   HW1  25.3400   1.4400  24.4700 H     1   SOL   0.4170
762   HW2  25.6800   2.9000  24.2800 H     1   SOL   0.4170
763    OW  15.3600   1.6800  13.2500 O     1   SOL  -0.8340
764   HW1  14.9600   1.8900  14.0900 H     1   SOL   0.4170
765   HW2  15.3200   2.5000  12.7600 H     1   SOL   0.4170
766    OW  20.4700   3.1700  15.5100 O     1   SOL  -0.8340
767   HW1  20.9000   2.3500  15.7300 H     1   SOL   0.4170
768   HW2  19.5700   2.9200  15.2900 H     1   SOL   0.4170
769    OW  13.9500   4.6100   2.1400 O     1   SOL  -0.8340
770   HW1  14.0000   4.1900   1.2900 H     1   SOL   0.4170
771   HW2  14.8100   4.4600   2.5300 H     1   SOL   0.4170
772    OW  14.3100  21.6700   8.1200 O     1   SOL  -0.8340
773   HW1  14.0300  22.1600   7.3500 H     1   SOL   0.4170
774   HW2  14.4800  22.3300   8.7800 H     1   SOL   0.4170
775    OW  15.3200  22.0000  21.5800 O     1   SOL  -0.8340
776   HW1  15.1900  21.3000  22.2200 H     1   SOL   0.4170
777   HW2  16.2400  21.9200  21.3200 H     1   SOL   0.4170
778    OW  25.3500   3.0400  20.9600 O     1   SOL  -0.8340
779   HW1  24.7000   2.4800  20.5300 H     1   SOL   0.4170
780   HW2  25.3600   2.7400  21.8700 H     1   SOL   0.4170
781    OW  22.9800  20.6700  22.9800 O     1   SOL  -0.8340
782   HW1  22.6900  19.9400  23.5400 H     1   SOL   0.4170
783   HW2  23.8300  20.3900  22.6500 H     1   SOL   0.4170
784    OW  12.6200  18.8100   8.9600 O     1   SOL  -0.8340
785   HW1  12.2900  18.4600   8.1300 H     1   SOL   0.4170
786   HW2  12.1100  19.6100   9.1100 H     1   SOL   0.4170
787    OW  23.9700   6.9400   9.4200 O     1   SOL  -0.8340
788   HW1  24.5700   6.5500  10.0500 H     1   SOL   0.4170
789   HW2  23.1000   6.6400   9.7000 H     1   SOL   0.4170
790    OW  25.8100   0.5800  12.8800 O     1   SOL  -0.8340
791   HW1  25.0800   0.4800  12.2800 H     1   SOL   0.4170
792   HW2  25.6700   1.4500  13.2700 H     1   SOL   0.4170
793    OW  18.1200  14.2600   2.7000 O     1   SOL  -0.8340
794   HW1  18.4700  13.7300   3.4200 H     1   SOL   0.4170
795   HW2  18.5000  15.1300   2.8300 H     1   SOL   0.4170
796    OW  23.4900   8.4100  11.8100 O     1   SOL  -0.8340
797   HW1  22.9800   8.3200  11.0100 H     1   SOL   0.4170
798   HW2  22.8400   8.5000  12.5000 H     1   SOL   0.4170
799    OW  16.6200  14.4300  24.1500 O     1   SOL  -0.8340
800   HW1  17.0800  14.6900  24.9500 H     1   SOL   0.4170
801   HW2  16.1600  15.2200  23.8700 H     1   SOL   0.4170
802    OW   6.9500   1.0200  19.3400 O     1   SOL  -0.8340
803   HW1   6.6900   1.9400  19.4000 H     1   SOL   0.4170
804   HW2   6.9800   0.8400  18.4000 H     1   SOL   0.4170
805    OW   3.3200  15.8700  20.9500 O     1   SOL  -0.8340
806   HW1   3.0200  15.4900  21.7700 H     1   SOL   0.4170
807   HW2   4.1200  15.3900  20.7400 H     1   SOL   0.4170
808    OW  20.3200  16.8300  22.6600 O     1   SOL  -0.8340
809   HW1  19.7800  16.0400  22.6800 H     1   SOL   0.4170
810   HW2  21.0200  16.6300  22.0500 H     1   SOL   0.4170
811    OW  22.1200   6.5600  26.3100 O     1   SOL  -0.8340
812   HW1  22.8200   7.1100  25.9600 H     1   SOL   0.4170
813   HW2  21.3300   7.0900  26.1900 H     1   SOL   0.4170
814    OW  29.1200   3.3500   4.1200 O     1   SOL  -0.8340
815   HW1  30.0600   3.1500   4.2100 H     1   SOL   0.4170
816   HW2  28.6800   2.5400   4.3600 H     1   SOL   0.4170
817    OW  27.5200  25.7300  14.3800 O     1   SOL  -0.8340
818   HW1  27.3900  26.2600  13.5900 H     1   SOL   0.4170
819   HW2  27.9700  26.3200  14.9800 H     1   SOL   0.4170
820    OW   9.4800  15.0100  10.5900 O     1   SOL  -0.8340
821   HW1   9.4000  15.9500  10.4100 H     1   SOL   0.4170
822   HW2  10.3000  14.7500  10.1700 H     1   SOL   0.4170
823    OW   6.3000  29.2500   7.5200 O     1   SOL  -0.8340
824   HW1   5.7500  29.1000   6.7500 H     1   SOL   0.4170
825   HW2   5.7400  29.7400   8.1200 H     1   SOL   0.4170
826    OW  19.8800  24.2100  16.6700 O     1   SOL  -0.8340
827   HW1  20.3000  24.2100  15.8100 H     1   SOL   0.4170
828   HW2  20.5900  24.0400  17.2900 H     1   SOL   0.4170
829    OW  12.0300   9.9800  28.1400 O     1   SOL  -0.8340
830   HW1  12.7000  10.0100  27.4600 H     1   SOL   0.4170
831   HW2  11.5500   9.1600  27.9600 H     1   SOL   0.4170
832    OW  20.5400  20.4800  14.2900 O     1   SOL  -0.8340
833   HW1  20.8100  21.3800  14.0800 H     1   SOL   0.4170
834   HW2  20.2100  20.5300  15.1900 H     1   SOL   0.4170
835    OW  19.0800  16.1900  25.0600 O     1   SOL  -0.8340
836   HW1  19.2600  16.2900  24.1200 H     1   SOL   0.4170
837   HW2  19.3100  15.2900  25.2600 H     1   SOL   0.4170
838    OW  10.1600  24.3400  11.0900 O     1   SOL  -0.8340
839   HW1   9.4100  24.3900  10.4900 H     1   SOL   0.4170
840   HW2  10.6600  23.5900  10.7700 H     1   SOL   0.4170
841    OW  17.4600  14.5600  26.8100 O     1   SOL  -0.8340
842   HW1  17.6300  15.3700  27.2900 H     1   SOL   0.4170
843   HW2  18.3300  14.2000  26.6300 H     1   SOL   0.4170
844    OW  27.3200  28.9700  15.2900 O     1   SOL  -0.8340
845   HW1  26.9900  28.7100  16.1500 H     1   SOL   0.4170
846   HW2  26.5300  29.0900  14.7500 H     1   SOL   0.4170
847    OW   2.4700  20.0600  24.8000 O     1   SOL  -0.8340
848   HW1   3.1200  19.4900  24.3800 H     1   SOL   0.4170
849   HW2   2.0300  19.4900  25.4300 H     1   SOL   0.4170
850    OW  27.9300   5.3000   5.3700 O     1   SOL  -0.8340
851   HW1  28.5000   6.0400   5.5800 H     1   SOL   0.4170
852   HW2  28.4000   4.8200   4.6900 H     1   SOL   0.4170
853    OW  12.9800  13.1100  19.8700 O     1   SOL  -0.8340
854   HW1  12.0500  12.9500  19.7000 H     1   SOL   0.4170
855   HW2  13.1100  12.8500  20.7800 H     1   SOL   0.4170
856    OW  14.4700  20.8900  10.9400 O     1   SOL  -0.8340
857   HW1  14.5400  20.4000  10.1200 H     1   SOL   0.4170
858   HW2  13.5500  21.1400  10.9800 H     1   SOL   0.4170
859    OW   2.8900   0.5700  16.5300 O     1   SOL  -0.8340
860   HW1   2.2300   1.0800  16.0500 H     1   SOL   0.4170
861   HW2   3.5300   1.2300  16.8200 H     1   SOL   0.4170
862    OW  23.9800  21.8800   7.8000 O     1   SOL  -0.8340
863   HW1  24.1400  21.6700   8.7100 H     1   SOL   0.4170
864   HW2  24.7500  21.5500   7.3300 H     1   SOL   0.4170
865    OW  28.6300  20.2700  24.5600 O     1   SOL  -0.8340
866   HW1  28.0300  20.9300  24.9200 H     1   SOL   0.4170
867   HW2  29.4500  20.4100  25.0300 H     1   SOL   0.4170
868    OW  16.2200   9.2500  24.8800 O     1   SOL  -0.8340
869   HW1  17.1400   9.4700  24.7300 H     1   SOL   0.4170
870   HW2  16.2400   8.3300  25.1700 H     1   SOL   0.4170
871    OW   9.8600  21.8400  29.1800 O     1   SOL  -0.8340
872   HW1   9.6900  22.3600  29.9600 H     1   SOL   0.4170
873   HW2  10.7900  21.6000  29.2400 H     1   SOL   0.4170
874    OW  15.2100   1.1600   1.3500 O     1   SOL  -0.8340
875   HW1  16.1200   1.3300   1.5700 H     1   SOL   0.4170
876   HW2  14.7200   1.4600   2.1200 H     1   SOL   0.4170
877    OW  16.6900   3.9400   3.1000 O     1   SOL  -0.8340
878   HW1  17.0700   4.8100   3.2200 H     1   SOL   0.4170
879   HW2  17.3300   3.4700   2.5800 H     1   SOL   0.4170
880    OW   8.4000  23.6200  15.9900 O     1   SOL  -0.8340
881   HW1   7.8900  24.4200  16.0400 H     1   SOL   0.4170
882   HW2   8.8600  23.6600  15.1500 H     1   SOL   0.4170
883    OW  15.8000  17.9100  25.4000 O     1   SOL  -0.8340
884   HW1  16.6900  18.1200  25.6800 H     1   SOL   0.4170
885   HW2  15.5300  17.2100  26.0000 H     1   SOL   0.4170
886    OW   1.5400  16.4900   0.5600 O     1   SOL  -0.8340
887   HW1   1.8800  16.3200  -0.3100 H     1   SOL   0.4170
888   HW2   0.5900  16.5100   0.4500 H     1   SOL   0.4170
889    OW   1.8700  12.2600   2.1400 O     1   SOL  -0.8340
890   HW1   1.2800  12.0100   2.8500 H     1   SOL   0.4170
891   HW2   1.3000  12.4300   1.4000 H     1   SOL   0.4170
892    OW  25.3300   5.9400   1.3500 O     1   SOL  -0.8340
893   HW1  25.1100   5.4300   0.5700 H     1   SOL   0.4170
894   HW2  25.7900   5.3300   1.9200 H     1   SOL   0.4170
895    OW  12.0200  14.3800  10.0300 O     1   SOL  -0.8340
896   HW1  12.4100  14.9900  10.6600 H     1   SOL   0.4170
897   HW2  12.7400  14.1300   9.4500 H     1   SOL   0.4170
898    OW   3.4000  24.5200  28.3200 O     1   SOL  -0.8340
899   HW1   3.1400  23.8200  27.7300 H     1   SOL   0.4170
900   HW2   2.6700  24.6100  28.9300 H     1   SOL   0.4170
901    OW   2.3500   8.8600  13.1600 O     1   SOL  -0.8340
902   HW1   2.4500   9.2500  14.0300 H     1   SOL   0.4170
903   HW2   1.7200   9.4300  12.7200 H     1   SOL   0.4170
904    OW   4.8600   4.4600  25.6900 O     1   SOL  -0.8340
905   HW1   5.7600   4.8000  25.6600 H     1   SOL   0.4170
906   HW2   4.9600   3.5300  25.4500 H     1   SOL   0.4170
907    OW  23.6700  14.4300   2.5400 O     1   SOL  -0.8340
908   HW1  23.9300  14.3000   3.4500 H     1   SOL   0.4170
909   HW2  23.9200  13.6200   2.0900 H     1   SOL   0.4170
910    OW  24.9800   1.5100   0.6400 O     1   SOL  -0.8340
911   HW1  25.7800   1.5300   0.1200 H     1   SOL   0.4170
912   HW2  24.6500   0.6200   0.5400 H     1   SOL   0.4170
913    OW  26.3400  27.2800  27.7500 O     1   SOL  -0.8340
914   HW1  26.8800  26.7800  28.3600 H     1   SOL   0.4170
915   HW2  26.9500  27.5900  27.0900 H     1   SOL   0.4170
916    OW   8.1100   3.2300   5.1400 O     1   SOL  -0.8340
917   HW1   8.7100   3.5400   5.8200 H     1   SOL   0.4170
918   HW2   7.2500   3.2300   5.5700 H     1   SOL   0.4170
919    OW  12.5000  28.3000   1.1300 O     1   SOL  -0.8340
920   HW1  13.1100  27.8000   1.6700 H     1   SOL   0.4170
921   HW2  13.0400  28.6600   0.4200 H     1   SOL   0.4170
922    OW   6.5600  13.0700   0.0100 O     1   SOL  -0.8340
923   HW1   7.1200  12.3500   0.3000 H     1   SOL   0.4170
924   HW2   5.7400  12.9400   0.4900 H     1   SOL   0.4170
925    OW  15.7300  23.7900   1.2400 O     1   SOL  -0.8340
926   HW1  15.5800  23.6100   0.3100 H     1   SOL   0.4170
927   HW2  16.4400  24.4300   1.2500 H     1   SOL   0.4170
928    OW   8.5600   6.7000  14.9800 O     1   SOL  -0.8340
929   HW1   8.1600   6.2300  14.2500 H     1   SOL   0.4170
930   HW2   9.4200   6.3000  15.0800 H     1   SOL   0.4170
931    OW   7.0600  12.1500  20.0500 O     1   SOL  -0.8340
932   HW1   6.7500  12.2800  20.9400 H     1   SOL   0.4170
933   HW2   6.6800  11.3200  19.7800 H     1   SOL   0.4170
934    OW  12.4400  24.9500   7.8000 O     1   SOL  -0.8340
935   HW1  12.9800  25.3100   7.0900 H     1   SOL   0.4170
936   HW2  13.0800  24.5600   8.4000 H     1   SOL   0.4170
937    OW  28.1100  20.7900  12.2200 O     1   SOL  -0.8340
938   HW1  28.5100  20.4300  11.4300 H     1   SOL   0.4170
939   HW2  28.6600  20.4600  12.9400 H     1   SOL   0.4170
940    OW  17.7300   6.7600  23.9300 O     1   SOL  -0.8340
941   HW1  18.4600   6.2000  24.1800 H     1   SOL   0.4170
942   HW2  17.0000   6.4600  24.4800 H     1   SOL   0.4170
943    OW  19.8600  13.6800  26.0300 O     1   SOL  -0.8340
944   HW1  19.7200  12.8900  25.5100 H     1   SOL   0.4170
945   HW2  20.7300  13.5900  26.4000 H     1   SOL   0.4170
946    OW  17.9400  17.5400   6.7000 O     1   SOL  -0.8340
947   HW1  17.0000  17.5500   6.8900 H     1   SOL   0.4170
948   HW2  18.3600  17.6400   7.5500 H     1   SOL   0.4170
949    OW  14.8400   8.1900   3.6700 O     1   SOL  -0.8340
950   HW1  13.9400   7.9700   3.9100 H     1   SOL   0.4170
951   HW2  15.1200   8.8200   4.3400 H     1   SOL   0.4170
952    OW   6.3200  25.2100  20.7100 O     1   SOL  -0.8340
953   HW1   6.3100  25.9900  20.1600 H     1   SOL   0.4170
954   HW2   5.7600  24.5900  20.2600 H     1   SOL   0.4170
955    OW   3.6900   6.6300  15.0100 O     1   SOL  -0.8340
956   HW1   3.2700   6.8900  14.1900 H     1   SOL   0.4170
957   HW2   4.6100   6.8700  14.8900 H     1   SOL   0.4170
958    OW   8.5500  29.1700   0.8100 O     1   SOL  -0.8340
959   HW1   8.4800  28.3700   0.2900 H     1   SOL   0.4170
960   HW2   8.9800  28.8900   1.6200 H     1   SOL   0.4170
961    OW  12.5800  14.2900  16.0100 O     1   SOL  -0.8340
962   HW1  12.3200  13.3600  16.0200 H     1   SOL   0.4170
963   HW2  11.9400  14.7200  16.5700 H     1   SOL   0.4170
964    OW  19.1500  16.7400   3.2200 O     1   SOL  -0.8340
965   HW1  19.7300  16.9000   3.9600 H     1   SOL   0.4170
966   HW2  19.6700  16.9700   2.4500 H     1   SOL   0.4170
967    OW  10.1500   3.0900  17.6300 O     1   SOL  -0.8340
968   HW1  10.0200   2.7000  18.4900 H     1   SOL   0.4170
969   HW2   9.4800   3.7600  17.5700 H     1   SOL   0.4170
970    OW  17.7400  22.7900  10.1100 O     1   SOL  -0.8340
971   HW1  17.6700  23.7200   9.8900 H     1   SOL   0.4170
972   HW2  17.3800  22.7200  10.9900 H     1   SOL   0.4170
973    OW   2.2900   4.7800  16.4100 O     1   SOL  -0.8340
974   HW1   2.2700   4.0400  15.8100 H     1   SOL   0.4170
975   HW2   2.6200   5.5100  15.8800 H     1   SOL   0.4170
976    OW  28.1100  27.4100  22.1000 O     1   SOL  -0.8340
977   HW1  28.5100  27.2600  22.9500 H     1   SOL   0.4170
978   HW2  27.7800  26.5500  21.8300 H     1   SOL   0.4170
979    OW  11.8100   1.5600  16.0500 O     1   SOL  -0.8340
980   HW1  11.1300   1.4300  15.3800 H     1   SOL   0.4170
981   HW2  11.3400   1.9300  16.7900 H     1   SOL   0.4170
982    OW  15.0700   5.2700  28.6600 O     1   SOL  -0.8340
983   HW1  15.2900   6.0400  29.1800 H     1   SOL   0.4170
984   HW2  15.7900   4.6500  28.8300 H     1   SOL   0.4170
985    OW  10.8300  19.2800  12.2900 O     1   SOL  -0.8340
986   HW1  10.9500  18.8800  13.1500 H     1   SOL   0.4170
987   HW2  11.3300  18.7200  11.7000 H     1   SOL   0.4170
988    OW   7.7900  18.2600  28.9500 O     1   SOL  -0.8340
989   HW1   8.3200  18.4000  28.1600 H     1   SOL   0.4170
990   HW2   7.8800  17.3300  29.1400 H     1   SOL   0.4170
991    OW  17.6200  10.2500   3.5000 O     1   SOL  -0.8340
992   HW1  17.0300  10.5800   2.8200 H     1   SOL   0.4170
993   HW2  17.0500   9.7700   4.1000 H     1   SOL   0.4170
994    OW   4.9400   9.2000  20.1000 O     1   SOL  -0.8340
995   HW1   4.2100   8.5900  20.2300 H     1   SOL   0.4170
996   HW2   5.4700   8.8000  19.4100 H     1   SOL   0.4170
997    OW  19.8600  20.0400  26.1700 O     1   SOL  -0.8340
998   HW1  19.8100  19.6000  27.0200 H     1   SOL   0.4170
999   HW2  20.6200  20.6200  26.2500 H     1   SOL   0.4170
1000    OW  14.1900  29.6400  17.2800 O     1   SOL  -0.8340
1001   HW1  13.5300  30.0400  16.7100 H     1   SOL   0.4170
1002   HW2  13.7500  28.8800  17.6600 H     1   SOL   0.4170
1003    OW  17.3900  12.0500  22.8200 O     1   SOL  -0.8340
1004   HW1  17.1300  12.8400  23.2800 H     1   SOL   0.4170
1005   HW2  17.8600  11.5300  23.4800 H     1   SOL   0.4170
1006    OW   0.1400   5.9600  17.6800 O     1   SOL  -0.8340
1007   HW1  -0.7600   5.6600  17.5800 H     1   SOL   0.4170
1008   HW2   0.6200   5.5200  16.9800 H     1   SOL   0.4170
1009    OW  29.4100  23.2100  22.4100 O     1   SOL  -0.8340
1010   HW1  30.2000  22.8800  22.8500 H     1   SOL   0.4170
1011   HW2  29.7500  23.7400  21.6900 H     1   SOL   0.4170
1012    OW  20.6000  15.0800   7.5000 O     1   SOL  -0.8340
1013   HW1  19.7300  14.7600   7.7400 H     1   SOL   0.4170
1014   HW2  20.6400  15.9500   7.9000 H     1   SOL   0.4170
1015    OW   5.6900   3.3400   8.5300 O     1   SOL  -0.8340
1016   HW1   6.4900   3.2900   9.0600 H     1   SOL   0.4170
1017   HW2   5.2400   2.5100   8.6900 H     1   SOL   0.4170
1018    OW   0.4100  19.4200   9.5100 O     1   SOL  -0.8340
1019   HW1  -0.3500  19.9900   9.3700 H     1   SOL   0.4170
1020   HW2   1.1600  20.0000   9.4300 H     1   SOL   0.4170
1021    OW   0.3900  10.5600  11.9200 O     1   SOL  -0.8340
1022   HW1  -0.4300  10.5200  11.4200 H     1   SOL   0.4170
1023   HW2   0.8200  11.3500  11.6000 H     1   SOL   0.4170
1024    OW  13.4400  17.4500   1.5500 O     1   SOL  -0.8340
1025   HW1  14.3500  17.4400   1.8400 H     1   SOL   0.4170
1026   HW2  12.9300  17.1700   2.3100 H     1   SOL   0.4170
1027    OW  25.2900  16.7400  28.3200 O     1   SOL  -0.8340
1028   HW1  25.4700  15.8000  28.2600 H     1   SOL   0.4170
1029   HW2  24.9500  16.8600  29.2100 H     1   SOL   0.4170
1030    OW   5.2900  18.9500  28.0900 O     1   SOL  -0.8340
1031   HW1   5.5100  19.8800  28.0500 H     1   SOL   0.4170
1032   HW2   6.0800  18.5200  28.4100 H     1   SOL   0.4170
1033    OW  14.3100   2.7000  15.5400 O     1   SOL  -0.8340
1034   HW1  13.5600   2.2100  15.8700 H     1   SOL   0.4170
1035   HW2  14.4500   3.3900  16.1900 H     1   SOL   0.4170
1036    OW  14.4500  23.1600   5.8000 O     1   SOL  -0.8340
1037   HW1  13.6700  23.0100   5.2600 H     1   SOL   0.4170
1038   HW2  15.1800  23.1000   5.1900 H     1   SOL   0.4170
1039    OW   3.9300  12.9400   3.7300 O     1   SOL  -0.8340
1040   HW1   3.6600  13.7200   4.2200 H     1   SOL   0.4170
1041   HW2   3.1700  12.7200   3.1900 H     1   SOL   0.4170
1042    OW  12.3900   1.8500   7.2200 O     1   SOL  -0.8340
1043   HW1  12.3800   1.7200   8.1700 H     1   SOL   0.4170
1044   HW2  11.6400   2.4200   7.0500 H     1   SOL   0.4170
1045    OW  19.2900   1.2100  22.4800 O     1   SOL  -0.8340
1046   HW1  20.0000   1.7500  22.1300 H     1   SOL   0.4170
1047   HW2  18.6400   1.1800  21.7800 H     1   SOL   0.4170
1048    OW   4.1400  28.6600  25.2300 O     1   SOL  -0.8340
1049   HW1   3.5900  28.3000  25.9300 H     1   SOL   0.4170
1050   HW2   3.6500  28.5000  24.4300 H     1   SOL   0.4170
1051    OW   6.1700   5.7300  28.5400 O     1   SOL  -0.8340
1052   HW1   5.5200   5.7200  29.2400 H     1   SOL   0.4170
1053   HW2   6.9300   6.1600  28.9300 H     1   SOL   0.4170
1054    OW  18.1100  11.6500   9.9400 O     1   SOL  -0.8340
1055   HW1  17.4100  11.5000  10.5700 H     1   SOL   0.4170
1056   HW2  17.8500  11.1500   9.1600 H     1   SOL   0.4170
1057    OW  17.1100  16.7700  22.4900 O     1   SOL  -0.8340
1058   HW1  16.7200  16.4400  21.6800 H     1   SOL   0.4170
1059   HW2  17.5300  17.5900  22.2400 H     1   SOL   0.4170
1060    OW  10.8800  27.1100  15.4300 O     1   SOL  -0.8340
1061   HW1  10.6400  27.5500  16.2400 H     1   SOL   0.4170
1062   HW2  10.0400  26.8900  15.0200 H     1   SOL   0.4170
1063    OW  18.1100   2.3900   1.3900 O     1   SOL  -0.8340
1064   HW1  18.8700   1.8200   1.2800 H     1   SOL   0.4170
1065   HW2  17.7700   2.5200   0.5000 H     1   SOL   0.4170
1066    OW   8.1400   6.1500   4.4700 O     1   SOL  -0.8340
1067   HW1   8.1100   6.9500   3.9500 H     1   SOL   0.4170
1068   HW2   9.0200   5.8100   4.3400 H     1   SOL   0.4170
1069    OW  14.8100  20.5400  25.9200 O     1   SOL  -0.8340
1070   HW1  15.1700  19.6600  25.8600 H     1   SOL   0.4170
1071   HW2  13.8700  20.4300  25.7500 H     1   SOL   0.4170
1072    OW  26.9700  13.1100  26.7800 O     1   SOL  -0.8340
1073   HW1  26.9500  13.4000  25.8700 H     1   SOL   0.4170
1074   HW2  27.8100  12.6700  26.8700 H     1   SOL   0.4170
1075    OW   6.1700   3.5200  19.2400 O     1   SOL  -0.8340
1076   HW1   6.6200   4.3600  19.2100 H     1   SOL   0.4170
1077   HW2   5.8800   3.4400  20.1500 H     1   SOL   0.4170
1078    OW  23.4800  27.8400  10.5200 O     1   SOL  -0.8340
1079   HW1  22.9900  27.6900   9.7100 H     1   SOL   0.4170
1080   HW2  23.1500  28.6800  10.8500 H     1   SOL   0.4170
1081    OW  18.9000  14.0300  14.3500 O     1   SOL  -0.8340
1082   HW1  18.1800  13.5400  14.7500 H     1   SOL   0.4170
1083   HW2  19.0000  13.6500  13.4800 H     1   SOL   0.4170
1084    OW  27.0400  19.7900  15.8500 O     1   SOL  -0.8340
1085   HW1  27.4100  20.0300  16.6900 H     1   SOL   0.4170
1086   HW2  26.2300  20.2900  15.7900 H     1   SOL   0.4170
1087    OW  20.7500  15.8700  29.5500 O     1   SOL  -0.8340
1088   HW1  21.0800  15.0300  29.2000 H     1   SOL   0.4170
1089   HW2  20.4300  16.3400  28.7800 H     1   SOL   0.4170
1090    OW  15.3500   4.7200  17.5100 O     1   SOL  -0.8340
1091   HW1  14.7600   4.4700  18.2200 H     1   SOL   0.4170
1092   HW2  16.1300   4.1800  17.6400 H     1   SOL   0.4170
1093    OW   9.5700  28.2300   5.9200 O     1   SOL  -0.8340
1094   HW1  10.3700  27.7900   5.6500 H     1   SOL   0.4170
1095   HW2   9.3900  28.8700   5.2200 H     1   SOL   0.4170
1096    OW  26.7100   5.0000  19.4500 O     1   SOL  -0.8340
1097   HW1  26.2600   4.2500  19.8600 H     1   SOL   0.4170
1098   HW2  26.0200   5.6600  19.3600 H     1   SOL   0.4170
1099    OW  15.4300  19.0400  13.4900 O     1   SOL  -0.8340
1100   HW1  16.1600  18.5800  13.0800 H     1   SOL   0.4170
1101   HW2  15.0700  19.5900  12.7800 H     1   SOL   0.4170
1102    OW   4.3200  28.0000   9.6800 O     1   SOL  -0.8340
1103   HW1   4.8700  27.3400  10.1000 H     1   SOL   0.4170
1104   HW2   4.1000  27.6200   8.8300 H     1   SOL   0.4170
1105    OW  14.7300  27.2600   2.2900 O     1   SOL  -0.8340
1106   HW1  15.2600  27.1600   3.0800 H     1   SOL   0.4170
1107   HW2  15.1800  27.9300   1.7800 H     1   SOL   0.4170
1108    OW  18.9800  19.1100  22.0500 O     1   SOL  -0.8340
1109   HW1  19.5100  18.3100  21.9600 H     1   SOL   0.4170
1110   HW2  18.3500  19.0600  21.3300 H     1   SOL   0.4170
1111    OW  27.7800  17.6700  25.1300 O     1   SOL  -0.8340
1112   HW1  28.2700  17.1100  24.5300 H     1   SOL   0.4170
1113   HW2  28.0900  18.5500  24.9500 H     1   SOL   0.4170
1114    OW   6.0600  26.7500   1.0200 O     1   SOL  -0.8340
1115   HW1   6.4700  26.9700   1.8600 H     1   SOL   0.4170
1116   HW2   6.4800  25.9300   0.7600 H     1   SOL   0.4170
1117    OW   7.5000   5.6200  26.2100 O     1   SOL  -0.8340
1118   HW1   6.9500   5.2100  26.8800 H     1   SOL   0.4170
1119   HW2   7.5400   6.5400  26.4800 H     1   SOL   0.4170
1120    OW  15.3700  19.3300   7.2600 O     1   SOL  -0.8340
1121   HW1  14.8100  20.0500   7.5300 H     1   SOL   0.4170
1122   HW2  15.2300  18.6500   7.9200 H     1   SOL   0.4170
1123    OW   6.2800  16.4500  25.0200 O     1   SOL  -0.8340
1124   HW1   6.7100  16.9700  24.3400 H     1   SOL   0.4170
1125   HW2   6.9100  15.7600  25.2200 H     1   SOL   0.4170
1126    OW   6.4200   1.2300   2.6300 O     1   SOL  -0.8340
1127   HW1   6.9900   1.1900   3.4000 H     1   SOL   0.4170
1128   HW2   6.9600   1.6400   1.9600 H     1   SOL   0.4170
1129    OW  21.5900   9.8700   5.6800 O     1   SOL  -0.8340
1130   HW1  22.1200  10.6400   5.8900 H     1   SOL   0.4170
1131   HW2  21.3800   9.9600   4.7600 H     1   SOL   0.4170
1132    OW   7.8100  15.5500   2.9500 O     1   SOL  -0.8340
1133   HW1   8.3900  16.2400   2.6000 H     1   SOL   0.4170
1134   HW2   6.9300  15.8400   2.7000 H     1   SOL   0.4170
1135    OW   5.1500  22.4400  16.4000 O     1   SOL  -0.8340
1136   HW1   4.2200  22.4700  16.6100 H     1   SOL   0.4170
1137   HW2   5.1800  22.1100  15.5000 H     1   SOL   0.4170
1138    OW  12.1200  26.0500  12.1100 O     1   SOL  -0.8340
1139   HW1  11.3200  25.5400  12.0800 H     1   SOL   0.4170
1140   HW2  12.7500  25.4800  12.5700 H     1   SOL   0.4170
1141    OW  14.6900  16.0300  11.8200 O     1   SOL  -0.8340
1142   HW1  14.4600  15.7000  12.6900 H     1   SOL   0.4170
1143   HW2  15.5300  15.6100  11.6200 H     1   SOL   0.4170
1144    OW  19.5800   1.8100   8.7200 O     1   SOL  -0.8340
1145   HW1  19.2100   2.4600   8.1200 H     1   SOL   0.4170
1146   HW2  19.8500   1.0900   8.1600 H     1   SOL   0.4170
1147    OW  13.0400  13.8600   5.1100 O     1   SOL  -0.8340
1148   HW1  13.6800  14.2900   4.5600 H     1   SOL   0.4170
1149   HW2  13.0700  14.3300   5.9400 H     1   SOL   0.4170
1150    OW  22.4100   4.8400  24.1000 O     1   SOL  -0.8340
1151   HW1  22.4000   5.1300  25.0100 H     1   SOL   0.4170
1152   HW2  23.1500   5.3200  23.7100 H     1   SOL   0.4170
1153    OW  16.7200  25.3500  10.8800 O     1   SOL  -0.8340
1154   HW1  16.2500  25.1800  11.7000 H     1   SOL   0.4170
1155   HW2  16.8900  26.2900  10.8900 H     1   SOL   0.4170
1156    OW  22.7500  10.7500  28.1100 O     1   SOL  -0.8340
1157   HW1  23.5100  10.2300  27.8600 H     1   SOL   0.4170
1158   HW2  22.1500  10.1200  28.5100 H     1   SOL   0.4170
1159    OW  15.9000  22.8400  24.3900 O     1   SOL  -0.8340
1160   HW1  15.3800  22.9800  23.6000 H     1   SOL   0.4170
1161   HW2  15.4800  22.1100  24.8400 H     1   SOL   0.4170
1162    OW  26.8100   0.6700  19.6600 O     1   SOL  -0.8340
1163   HW1  26.1900   1.3100  19.3200 H     1   SOL   0.4170
1164   HW2  26.4700   0.4300  20.5200 H     1   SOL   0.4170
1165    OW   1.6700  14.8200  14.8600 O     1   SOL  -0.8340
1166   HW1   2.3200  15.3900  15.2700 H     1   SOL   0.4170
1167   HW2   1.1000  15.4200  14.3900 H     1   SOL   0.4170
1168    OW   4.5100  22.7700   0.2000 O     1   SOL  -0.8340
1169   HW1   4.2700  23.5500  -0.3100 H     1   SOL   0.4170
1170   HW2   4.6700  23.1000   1.0800 H     1   SOL   0.4170
1171    OW  10.2000  17.4800   9.5200 O     1   SOL  -0.8340
1172   HW1  10.4800  17.5100   8.6100 H     1   SOL   0.4170
1173   HW2  11.0000  17.3100  10.0100 H     1   SOL   0.4170
1174    OW   3.0600   5.4100  19.8300 O     1   SOL  -0.8340
1175   HW1   3.1600   4.6200  20.3600 H     1   SOL   0.4170
1176   HW2   2.7500   5.0900  18.9800 H     1   SOL   0.4170
1177    OW   0.6600  16.8000  10.2600 O     1   SOL  -0.8340
1178   HW1   0.9000  16.8400  11.1800 H     1   SOL   0.4170
1179   HW2   0.4700  17.7100  10.0200 H     1   SOL   0.4170
1180    OW   9.4300  15.8200   5.8100 O     1   SOL  -0.8340
1181   HW1   9.7800  14.9300   5.7100 H     1   SOL   0.4170
1182   HW2   8.4900  15.7000   5.8700 H     1   SOL   0.4170
1183    OW  13.6000  29.2100   6.7400 O     1   SOL  -0.8340
1184   HW1  13.0300  29.9600   6.9100 H     1   SOL   0.4170
1185   HW2  14.3200  29.3100   7.3700 H     1   SOL   0.4170
1186    OW  19.2800  17.1000   9.0400 O     1   SOL  -0.8340
1187   HW1  19.3200  16.3400   9.6300 H     1   SOL   0.4170
1188   HW2  19.2700  17.8600   9.6300 H     1   SOL   0.4170
1189    OW  16.4000  17.9200  17.7600 O     1   SOL  -0.8340
1190   HW1  15.9100  17.1200  17.5400 H     1   SOL   0.4170
1191   HW2  16.5900  18.3200  16.9100 H     1   SOL   0.4170
1192    OW  19.4400  12.2600   7.2700 O     1   SOL  -0.8340
1193   HW1  20.2000  12.4500   6.7100 H     1   SOL   0.4170
1194   HW2  19.8200  12.0800   8.1300 H     1   SOL   0.4170
1195    OW  27.3800   5.9000   9.0800 O     1   SOL  -0.8340
1196   HW1  28.2500   6.2400   8.8900 H     1   SOL   0.4170
1197   HW2  27.5200   5.0000   9.3700 H     1   SOL   0.4170
1198    OW  15.5400   2.4300  24.7800 O     1   SOL  -0.8340
1199   HW1  15.5300   1.5100  25.0400 H     1   SOL   0.4170
1200   HW2  16.3100   2.8000  25.2100 H     1   SOL   0.4170
1201    OW  20.8000   6.7300  12.9900 O     1   SOL  -0.8340
1202   HW1  20.4300   7.5900  13.1700 H     1   SOL   0.4170
1203   HW2  21.1700   6.4500  13.8200 H     1   SOL   0.4170
1204    OW  16.7000  29.5600   6.6300 O     1   SOL  -0.8340
1205   HW1  16.4600  29.6300   7.5600 H     1   SOL   0.4170
1206   HW2  16.5600  30.4500   6.2900 H     1   SOL   0.4170
1207    OW   9.1700   1.0200   7.4800 O     1   SOL  -0.8340
1208   HW1   9.8100   0.3200   7.3900 H     1   SOL   0.4170
1209   HW2   8.3700   0.6600   7.1000 H     1   SOL   0.4170
1210    OW  28.1700   9.5800  21.8200 O     1   SOL  -0.8340
1211   HW1  28.3500   9.1100  22.6300 H     1   SOL   0.4170
1212   HW2  28.5400   9.0400  21.1300 H     1   SOL   0.4170
1213    OW   7.2700  21.7200  21.4400 O     1   SOL  -0.8340
1214   HW1   7.8200  22.4900  21.3000 H     1   SOL   0.4170
1215   HW2   7.7900  21.1700  22.0200 H     1   SOL   0.4170
1216    OW  12.3600   4.7500  20.8700 O     1   SOL  -0.8340
1217   HW1  12.0700   5.3900  20.2200 H     1   SOL   0.4170
1218   HW2  13.2500   4.5100  20.6000 H     1   SOL   0.4170
1219    OW  24.1400  11.6400   2.5900 O     1   SOL  -0.8340
1220   HW1  23.8400  10.8600   3.0500 H     1   SOL   0.4170
1221   HW2  24.5800  11.3100   1.8100 H     1   SOL   0.4170
1222    OW  24.7500   5.2200  28.2600 O     1   SOL  -0.8340
1223   HW1  24.4900   6.0700  27.9000 H     1   SOL   0.4170
1224   HW2  25.4400   4.9200  27.6700 H     1   SOL   0.4170
1225    OW  20.7800   1.4500   0.5200 O     1   SOL  -0.8340
1226   HW1  20.6300   1.9000  -0.3100 H     1   SOL   0.4170
1227   HW2  21.4600   0.8100   0.3400 H     1   SOL   0.4170
1228    OW  19.4500  19.8400   3.3100 O     1   SOL  -0.8340
1229   HW1  19.2100  20.3400   4.0900 H     1   SOL   0.4170
1230   HW2  20.3900  19.6500   3.4200 H     1   SOL   0.4170
1231    OW  22.4300  12.4200  17.1900 O     1   SOL  -0.8340
1232   HW1  22.6400  12.6800  16.2900 H     1   SOL   0.4170
1233   HW2  21.5900  12.8500  17.3700 H     1   SOL   0.4170
1234    OW   4.9000  22.4700   9.6500 O     1   SOL  -0.8340
1235   HW1   5.3800  22.2600  10.4500 H     1   SOL   0.4170
1236   HW2   5.1500  21.7900   9.0300 H     1   SOL   0.4170
1237    OW  20.1100  12.0000   0.7600 O     1   SOL  -0.8340
1238   HW1  20.3800  12.5400   1.5000 H     1   SOL   0.4170
1239   HW2  20.5800  12.3600   0.0100 H     1   SOL   0.4170
1240    OW  27.3500  23.4100   9.4900 O     1   SOL  -0.8340
1241   HW1  27.2300  23.5000  10.4400 H     1   SOL   0.4170
1242   HW2  27.7600  24.2300   9.2200 H     1   SOL   0.4170
1243    OW   7.9400  26.3600  15.5800 O     1   SOL  -0.8340
1244   HW1   7.8100  27.2000  15.1300 H     1   SOL   0.4170
1245   HW2   7.2000  26.2900  16.1800 H     1   SOL   0.4170
1246    OW  19.7000  25.7800   0.3700 O     1   SOL  -0.8340
1247   HW1  20.6300  25.5400   0.3600 H     1   SOL   0.4170
1248   HW2  19.3200  25.2300   1.0600 H     1   SOL   0.4170
1249    OW   6.7700  28.7700  14.8900 O     1   SOL  -0.8340
1250   HW1   6.5500  29.5000  15.4700 H     1   SOL   0.4170
1251   HW2   6.1400  28.8400  14.1800 H     1   SOL   0.4170
1252    OW  22.3200  25.0800   1.3600 O     1   SOL  -0.8340
1253   HW1  23.1500  25.5500   1.2500 H     1   SOL   0.4170
1254   HW2  22.3600  24.3800   0.7100 H     1   SOL   0.4170
1255    OW  26.3800   8.6400   8.8500 O     1   SOL  -0.8340
1256   HW1  25.4900   8.5900   8.5100 H     1   SOL   0.4170
1257   HW2  26.5400   7.7800   9.2300 H     1   SOL   0.4170
1258    OW  17.4100  10.6000   7.3600 O     1   SOL  -0.8340
1259   HW1  17.9700  11.3700   7.4200 H     1   SOL   0.4170
1260   HW2  16.8000  10.7900   6.6500 H     1   SOL   0.4170
1261    OW  27.9100  13.7300  19.3000 O     1   SOL  -0.8340
1262   HW1  28.8200  14.0400  19.2700 H     1   SOL   0.4170
1263   HW2  27.8700  13.0500  18.6300 H     1   SOL   0.4170
1264    OW  24.1600  25.3300  17.3500 O     1   SOL  -0.8340
1265   HW1  24.0500  26.2800  17.3200 H     1   SOL   0.4170
1266   HW2  23.3100  25.0000  17.6300 H     1   SOL   0.4170
1267    OW  11.9600   9.3200  21.8200 O     1   SOL  -0.8340
1268   HW1  11.1900   8.9500  22.2400 H     1   SOL   0.4170
1269   HW2  11.6100   9.9600  21.1900 H     1   SOL   0.4170
1270    OW  20.9100  25.7800   3.7200 O     1   SOL  -0.8340
1271   HW1  21.4000  25.6900   2.9100 H     1   SOL   0.4170
1272   HW2  20.7100  24.8800   3.9800 H     1   SOL   0.4170
1273    OW   4.3900  21.2400  13.9000 O     1   SOL  -0.8340
1274   HW1   5.0500  21.6300  13.3300 H     1   SOL   0.4170
1275   HW2   3.6500  21.8500  13.8700 H     1   SOL   0.4170
1276    OW   7.6100  15.1300  12.8300 O     1   SOL  -0.8340
1277   HW1   8.5100  15.1800  12.5000 H     1   SOL   0.4170
1278   HW2   7.0600  15.3600  12.0800 H     1   SOL   0.4170
1279    OW  11.7600  21.6300  10.8900 O     1   SOL  -0.8340
1280   HW1  11.4100  20.8800  11.3700 H     1   SOL   0.4170
1281   HW2  11.3300  21.5900  10.0300 H     1   SOL   0.4170
1282    OW  13.2900  26.1800  27.8700 O     1   SOL  -0.8340
1283   HW1  13.2100  26.7600  28.6200 H     1   SOL   0.4170
1284   HW2  14.1500  26.3800  27.5000 H     1   SOL   0.4170
1285    OW  27.2300  17.4800  13.0900 O     1   SOL  -0.8340
1286   HW1  27.6900  17.1200  13.8500 H     1   SOL   0.4170
1287   HW2  26.4500  17.8900  13.4600 H     1   SOL   0.4170
1288    OW  11.5800  24.0200  24.3200 O     1   SOL  -0.8340
1289   HW1  11.1600  24.8300  24.0000 H     1   SOL   0.4170
1290   HW2  11.0100  23.3200  24.0100 H     1   SOL   0.4170
1291    OW  28.8000  26.8200   2.5000 O     1   SOL  -0.8340
1292   HW1  29.5000  27.4300   2.2700 H     1   SOL   0.4170
1293   HW2  28.0100  27.3700   2.5500 H     1   SOL   0.4170
1294    OW  18.4000  24.1500   2.4500 O     1   SOL  -0.8340
1295   HW1  19.0900  23.7000   2.9400 H     1   SOL   0.4170
1296   HW2  17.8000  24.4800   3.1200 H     1   SOL   0.4170
1297    OW   9.7700  26.7000  29.3800 O     1   SOL  -0.8340
1298   HW1  10.4600  27.2600  29.0100 H     1   SOL   0.4170
1299   HW2   9.2900  26.3700  28.6200 H     1   SOL   0.4170
1300    OW  18.1800  27.2500  18.0000 O     1   SOL  -0.8340
1301   HW1  18.2400  26.3100  17.8300 H     1   SOL   0.4170
1302   HW2  17.2700  27.3800  18.2800 H     1   SOL   0.4170
1303    OW  16.9600   2.6600   5.4700 O     1   SOL  -0.8340
1304   HW1  17.9000   2.5500   5.5400 H     1   SOL   0.4170
1305   HW2  16.8300   3.1300   4.6400 H     1   SOL   0.4170
1306    OW  11.7000  16.0500  27.7800 O     1   SOL  -0.8340
1307   HW1  11.0300  16.4200  28.3500 H     1   SOL   0.4170
1308   HW2  12.5000  16.0600  28.3000 H     1   SOL   0.4170
1309    OW  22.6900  28.2400   1.6000 O     1   SOL  -0.8340
1310   HW1  22.5500  27.3000   1.7100 H     1   SOL   0.4170
1311   HW2  23.3200  28.4700   2.2900 H     1   SOL   0.4170
1312    OW  15.7700  29.3900  25.3300 O     1   SOL  -0.8340
1313   HW1  16.7200  29.5400  25.3900 H     1   SOL   0.4170
1314   HW2  15.5900  28.7400  26.0200 H     1   SOL   0.4170
1315    OW   3.0600  22.3900  26.5900 O     1   SOL  -0.8340
1316   HW1   3.4000  22.7100  25.7600 H     1   SOL   0.4170
1317   HW2   3.4200  21.5000  26.6800 H     1   SOL   0.4170
1318    OW   7.2200  17.8400  17.0600 O     1   SOL  -0.8340
1319   HW1   6.7700  17.3800  17.7700 H     1   SOL   0.4170
1320   HW2   7.4600  18.6800  17.4400 H     1   SOL   0.4170
1321    OW  29.4400  19.6000  14.4100 O     1   SOL  -0.8340
1322   HW1  29.9000  19.0300  15.0200 H     1   SOL   0.4170
1323   HW2  28.7500  20.0100  14.9300 H     1   SOL   0.4170
1324    OW  22.0100  11.8800  24.4900 O     1   SOL  -0.8340
1325   HW1  21.5500  11.0700  24.6900 H     1   SOL   0.4170
1326   HW2  22.9100  11.7200  24.7900 H     1   SOL   0.4170
1327    OW  18.7600   8.1200  20.3600 O     1   SOL  -0.8340
1328   HW1  17.8200   7.9500  20.5000 H     1   SOL   0.4170
1329   HW2  18.9000   7.9100  19.4400 H     1   SOL   0.4170
1330    OW   0.8700  16.3900   3.2500 O     1   SOL  -0.8340
1331   HW1   1.4500  16.5700   2.5100 H     1   SOL   0.4170
1332   HW2   0.1200  15.9400   2.8600 H     1   SOL   0.4170
1333    OW  11.6100  10.2700  18.1800 O     1   SOL  -0.8340
1334   HW1  10.9400   9.6100  17.9800 H     1   SOL   0.4170
1335   HW2  12.4200   9.7600  18.2400 H     1   SOL   0.4170
1336    OW   2.2600  24.3200   6.3500 O     1   SOL  -0.8340
1337   HW1   2.8100  23.5700   6.1300 H     1   SOL   0.4170
1338   HW2   2.2500  24.3500   7.3000 H     1   SOL   0.4170
1339    OW   5.7400  22.2100  23.9800 O     1   SOL  -0.8340
1340   HW1   5.3100  21.9600  23.1700 H     1   SOL   0.4170
1341   HW2   6.3500  22.9100  23.7300 H     1   SOL   0.4170
1342    OW   5.6900  18.7700  14.2400 O     1   SOL  -0.8340
1343   HW1   6.2100  18.9200  15.0300 H     1   SOL   0.4170
1344   HW2   5.3900  19.6400  13.9800 H     1   SOL   0.4170
1345    OW  22.7000  15.2500  26.6900 O     1   SOL  -0.8340
1346   HW1  21.9400  15.8300  26.8000 H     1   SOL   0.4170
1347   HW2  23.4500  15.8300  26.6100 H     1   SOL   0.4170
1348    OW  27.8400  25.3900   0.0500 O     1   SOL  -0.8340
1349   HW1  27.2300  24.6800   0.2400 H     1   SOL   0.4170
1350   HW2  28.2000  25.6200   0.9100 H     1   SOL   0.4170
1351    OW   5.2100  16.7800   3.0700 O     1   SOL  -0.8340
1352   HW1   4.4400  16.4800   3.5400 H     1   SOL   0.4170
1353   HW2   5.3100  17.6900   3.3300 H     1   SOL   0.4170
1354    OW   8.6300  27.8900  10.4500 O     1   SOL  -0.8340
1355   HW1   9.4500  27.8900   9.9500 H     1   SOL   0.4170
1356   HW2   7.9700  27.6300   9.8100 H     1   SOL   0.4170
1357    OW  10.2800  16.9900  25.6200 O     1   SOL  -0.8340
1358   HW1   9.8400  17.6600  26.1400 H     1   SOL   0.4170
1359   HW2  10.9000  16.5900  26.2200 H     1   SOL   0.4170
1360    OW  14.2000  26.8700  10.2100 O     1   SOL  -0.8340
1361   HW1  15.0600  26.5200  10.4400 H     1   SOL   0.4170
1362   HW2  13.7800  27.0300  11.0500 H     1   SOL   0.4170
1363    OW  11.4500   4.5300   3.7500 O     1   SOL  -0.8340
1364   HW1  12.0300   4.5000   2.9900 H     1   SOL   0.4170
1365   HW2  12.0300   4.4700   4.5000 H     1   SOL   0.4170
1366    OW   4.9800   8.3800  26.5200 O     1   SOL  -0.8340
1367   HW1   5.9200   8.4900  26.4000 H     1   SOL   0.4170
1368   HW2   4.8200   7.4500  26.3600 H     1   SOL   0.4170
1369    OW  12.9300   5.5000  14.6400 O     1   SOL  -0.8340
1370   HW1  12.1700   4.9800  14.3600 H     1   SOL   0.4170
1371   HW2  12.9500   5.4100  15.5900 H     1   SOL   0.4170
1372    OW   0.1000  28.6200   4.7800 O     1   SOL  -0.8340
1373   HW1   1.0500  28.7100   4.8600 H     1   SOL   0.4170
1374   HW2  -0.0500  27.6800   4.7100 H     1   SOL   0.4170
1375    OW  16.0000  12.1600  20.5300 O     1   SOL  -0.8340
1376   HW1  15.1200  12.2100  20.9200 H     1   SOL   0.4170
1377   HW2  16.5800  12.0500  21.2800 H     1   SOL   0.4170
1378    OW  26.4000   4.0900  11.4300 O     1   SOL  -0.8340
1379   HW1  25.6500   4.6800  11.4700 H     1   SOL   0.4170
1380   HW2  26.2700   3.5900  10.6200 H     1   SOL   0.4170
1381    OW   7.4200  11.0600  11.2500 O     1   SOL  -0.8340
1382   HW1   7.3000  11.7800  10.6300 H     1   SOL   0.4170
1383   HW2   8.3000  11.2100  11.6100 H     1   SOL   0.4170
1384    OW  10.1800  20.9900   8.5900 O     1   SOL  -0.8340
1385   HW1   9.4800  20.6100   9.1200 H     1   SOL   0.4170
1386   HW2   9.8600  20.9100   7.6900 H     1   SOL   0.4170
1387    OW  14.2500   9.0900  14.5000 O     1   SOL  -0.8340
1388   HW1  15.2000   9.1600  14.5700 H     1   SOL   0.4170
1389   HW2  13.9300   9.9100  14.8800 H     1   SOL   0.4170
1390    OW  15.1200  18.5600  28.9600 O     1   SOL  -0.8340
1391   HW1  14.4900  18.1800  28.3400 H     1   SOL   0.4170
1392   HW2  14.6400  18.6000  29.7900 H     1   SOL   0.4170
1393    OW   8.8700  21.1600  12.2900 O     1   SOL  -0.8340
1394   HW1   9.6600  20.6700  12.5200 H     1   SOL   0.4170
1395   HW2   8.4500  20.6100  11.6200 H     1   SOL   0.4170
1396    OW   1.6300  25.6100  21.0000 O     1   SOL  -0.8340
1397   HW1   1.4700  24.7700  20.5700 H     1   SOL   0.4170
1398   HW2   1.4800  26.2700  20.3100 H     1   SOL   0.4170
1399    OW  17.6500   7.9900   6.9300 O     1   SOL  -0.8340
1400   HW1  16.8200   7.6800   6.5600 H     1   SOL   0.4170
1401   HW2  17.5000   8.9200   7.1100 H     1   SOL   0.4170
1402    OW  22.3700   3.5900  29.0200 O     1   SOL  -0.8340
1403   HW1  23.1400   4.1200  28.8000 H     1   SOL   0.4170
1404   HW2  22.6900   2.9500  29.6500 H     1   SOL   0.4170
1405    OW   0.0500  27.3000  15.4800 O     1   SOL  -0.8340
1406   HW1  -0.7300  27.8500  15.5500 H     1   SOL   0.4170
1407   HW2   0.6900  27.8400  15.0200 H     1   SOL   0.4170
1408    OW  23.6500  28.4400  20.1000 O     1   SOL  -0.8340
1409   HW1  24.2400  28.7400  20.7900 H     1   SOL   0.4170
1410   HW2  22.9000  28.0800  20.5700 H     1   SOL   0.4170
1411    OW  13.0600  27.2900  18.0000 O     1   SOL  -0.8340
1412   HW1  12.3100  27.0100  17.4900 H     1   SOL   0.4170
1413   HW2  12.8800  26.9800  18.8900 H     1   SOL   0.4170
1414    OW  22.3600   2.1700   5.9200 O     1   SOL  -0.8340
1415   HW1  22.1500   2.9800   6.3900 H     1   SOL   0.4170
1416   HW2  23.2200   2.3200   5.5500 H     1   SOL   0.4170
1417    OW  17.7100  24.5500  14.8100 O     1   SOL  -0.8340
1418   HW1  17.7900  23.8600  14.1600 H     1   SOL   0.4170
1419   HW2  18.3900  24.3700  15.4500 H     1   SOL   0.4170
1420    OW  28.7600  18.9800  29.4000 O     1   SOL  -0.8340
1421   HW1  28.0500  19.1900  28.7900 H     1   SOL   0.4170
1422   HW2  29.1700  19.8300  29.5900 H     1   SOL   0.4170
1423    OW   5.3200   0.1600   4.9800 O     1   SOL  -0.8340
1424   HW1   5.1500   1.0500   5.2900 H     1   SOL   0.4170
1425   HW2   5.7000   0.2800   4.1100 H     1   SOL   0.4170
1426    OW   7.7700   5.6700  20.3700 O     1   SOL  -0.8340
1427   HW1   8.5700   5.6000  20.8800 H     1   SOL   0.4170
1428   HW2   7.0900   5.8400  21.0200 H     1   SOL   0.4170
1429    OW  11.4200  18.3300  23.2700 O     1   SOL  -0.8340
1430   HW1  12.2200  18.0000  22.8700 H     1   SOL   0.4170
1431   HW2  11.2900  17.7600  24.0300 H     1   SOL   0.4170
1432    OW  25.9000   2.6900  17.7100 O     1   SOL  -0.8340
1433   HW1  26.1600   3.6100  17.7900 H     1   SOL   0.4170
1434   HW2  25.0700   2.6300  18.1700 H     1   SOL   0.4170
1435    OW  10.9500  20.7500  19.6700 O     1   SOL  -0.8340
1436   HW1  10.5100  20.9800  20.4800 H     1   SOL   0.4170
1437   HW2  10.7500  19.8300  19.5400 H     1   SOL   0.4170
1438    OW  11.9700   7.8600  13.7700 O     1   SOL  -0.8340
1439   HW1  12.8500   8.1500  13.5300 H     1   SOL   0.4170
1440   HW2  12.1100   7.0600  14.2800 H     1   SOL   0.4170
1441    OW  10.0800   5.3900  22.2400 O     1   SOL  -0.8340
1442   HW1  10.8400   5.5600  21.6800 H     1   SOL   0.4170
1443   HW2  10.4400   4.9700  23.0100 H     1   SOL   0.4170
1444    OW   8.6700  24.1100  21.7800 O     1   SOL  -0.8340
1445   HW1   7.8600  24.4800  21.4200 H     1   SOL   0.4170
1446   HW2   9.0400  24.8100  22.3100 H     1   SOL   0.4170
1447    OW  19.5700  25.8900  20.2400 O     1   SOL  -0.8340
1448   HW1  20.1200  26.4200  19.6700 H     1   SOL   0.4170
1449   HW2  19.5300  25.0300  19.8200 H     1   SOL   0.4170
1450    OW  29.4800  26.9600  11.4800 O     1   SOL  -0.8340
1451   HW1  29.6900  27.8100  11.0900 H     1   SOL   0.4170
1452   HW2  28.7000  27.1200  12.0100 H     1   SOL   0.4170
1453    OW  16.2400   7.4100  21.2900 O     1   SOL  -0.8340
1454   HW1  16.5100   6.4900  21.3000 H     1   SOL   0.4170
1455   HW2  16.4400   7.7200  22.1700 H     1   SOL   0.4170
1456    OW  14.4300  23.9900   9.6600 O     1   SOL  -0.8340
1457   HW1  15.1500  23.6800  10.2200 H     1   SOL   0.4170
1458   HW2  13.9300  24.5900  10.2200 H     1   SOL   0.4170
1459    OW  26.3500   4.5200  24.9300 O     1   SOL  -0.8340
1460   HW1  27.2000   4.4700  24.4800 H     1   SOL   0.4170
1461   HW2  25.9300   5.2900  24.5500 H     1   SOL   0.4170
1462    OW  12.5200   2.8800  22.8000 O     1   SOL  -0.8340
1463   HW1  12.7400   2.0900  22.3100 H     1   SOL   0.4170
1464   HW2  12.4200   3.5500  22.1300 H     1   SOL   0.4170
1465    OW  29.1100  16.7700  23.0600 O     1   SOL  -0.8340
1466   HW1  28.9700  15.8400  23.2600 H     1   SOL   0.4170
1467   HW2  30.0500  16.9100  23.1700 H     1   SOL   0.4170
1468    OW  20.0200   2.7300  27.7600 O     1   SOL  -0.8340
1469   HW1  20.7700   3.2700  28.0200 H     1   SOL   0.4170
1470   HW2  20.3700   2.1300  27.1000 H     1   SOL   0.4170
1471    OW  29.4400  14.7700  25.6200 O     1   SOL  -0.8340
1472   HW1  29.0100  15.2400  26.3300 H     1   SOL   0.4170
1473   HW2  30.3100  14.5700  25.9500 H     1   SOL   0.4170
1474    OW  19.7500  16.6400  19.3000 O     1   SOL  -0.8340
1475   HW1  18.9600  16.7900  19.8100 H     1   SOL   0.4170
1476   HW2  19.5100  15.9700  18.6700 H     1   SOL   0.4170
1477    OW  17.1400  18.6100  20.3500 O     1   SOL  -0.8340
1478   HW1  17.2200  18.3900  19.4200 H     1   SOL   0.4170
1479   HW2  16.2300  18.9100  20.4300 H     1   SOL   0.4170
1480    OW  26.4200  24.3900   5.8900 O     1   SOL  -0.8340
1481   HW1  25.5000  24.6500   5.9500 H     1   SOL   0.4170
1482   HW2  26.6800  24.2300   6.8000 H     1   SOL   0.4170
1483    OW   2.1300  17.2600  23.4400 O     1   SOL  -0.8340
1484   HW1   2.1400  17.2200  24.3900 H     1   SOL   0.4170
1485   HW2   2.9700  17.6600  23.2000 H     1   SOL   0.4170
1486    OW  25.1500  20.1700  21.5000 O     1   SOL  -0.8340
1487   HW1  24.7400  19.4000  21.1100 H     1   SOL   0.4170
1488   HW2  26.0300  19.8700  21.7600 H     1   SOL   0.4170
1489    OW   1.2200   1.1100  21.4800 O     1   SOL  -0.8340
1490   HW1   0.7200   1.9200  21.6100 H     1   SOL   0.4170
1491   HW2   0.8600   0.7300  20.6800 H     1   SOL   0.4170
1492    OW  10.1600   7.0500  29.6400 O     1   SOL  -0.8340
1493   HW1  10.4200   6.8800  28.7400 H     1   SOL   0.4170
1494   HW2  10.9300   6.8500  30.1600 H     1   SOL   0.4170
1495    OW   1.6900   3.8400  22.9800 O     1   SOL  -0.8340
1496   HW1   1.2600   4.1500  22.1900 H     1   SOL   0.4170
1497   HW2   2.5600   3.5600  22.6900 H     1   SOL   0.4170
1498    OW  10.8600  17.5700   0.5100 O     1   SOL  -0.8340
1499   HW1  10.3100  17.7800   1.2700 H     1   SOL   0.4170
1500   HW2  11.7600  17.6700   0.8200 H     1   SOL   0.4170
1501    OW  20.4600   9.3600   8.2700 O     1   SOL  -0.8340
1502   HW1  20.8800   9.5400   7.4300 H     1   SOL   0.4170
1503   HW2  19.5600   9.6600   8.1500 H     1   SOL   0.4170
1504    OW  11.7300  23.7200   4.3200 O     1   SOL  -0.8340
1505   HW1  11.0500  23.5400   3.6700 H     1   SOL   0.4170
1506   HW2  12.4000  24.2000   3.8400 H     1   SOL   0.4170
1507    OW  22.9900  23.5200  28.5600 O     1   SOL  -0.8340
1508   HW1  22.6400  24.1900  27.9700 H     1   SOL   0.4170
1509   HW2  23.7700  23.1900  28.1000 H     1   SOL   0.4170
1510    OW  12.2000  10.8100   1.2200 O     1   SOL  -0.8340
1511   HW1  12.5800  11.6800   1.1300 H     1   SOL   0.4170
1512   HW2  12.2700  10.4200   0.3500 H     1   SOL   0.4170
1513    OW   7.1900  13.3700   9.5300 O     1   SOL  -0.8340
1514   HW1   8.0900  13.6700   9.4600 H     1   SOL   0.4170
1515   HW2   6.6900  14.1600   9.7300 H     1   SOL   0.4170
1516    OW  26.4900  28.3800  17.8700 O     1   SOL  -0.8340
1517   HW1  26.0300  27.7400  18.4100 H     1   SOL   0.4170
1518   HW2  26.4900  29.1800  18.4000 H     1   SOL   0.4170
1519    OW  27.1800  15.6200   6.3200 O     1   SOL  -0.8340
1520   HW1  28.0800  15.3500   6.1800 H     1   SOL   0.4170
1521   HW2  26.8000  14.9400   6.8800 H     1   SOL   0.4170
1522    OW  28.3300  10.6400   0.9700 O     1   SOL  -0.8340
1523   HW1  28.2200  10.0000   0.2700 H     1   SOL   0.4170
1524   HW2  28.9700  11.2700   0.6200 H     1   SOL   0.4170
1525    OW  22.1800  21.8400  25.6500 O     1   SOL  -0.8340
1526   HW1  22.9700  21.4800  26.0500 H     1   SOL   0.4170
1527   HW2  22.4100  21.9800  24.7400 H     1   SOL   0.4170
1528    OW  13.4500  11.6000  22.4700 O     1   SOL  -0.8340
1529   HW1  13.5800  11.8000  23.4000 H     1   SOL   0.4170
1530   HW2  12.9900  10.7600  22.4600 H     1   SOL   0.4170
1531    OW   9.3100   7.7500   9.0100 O     1   SOL  -0.8340
1532   HW1   9.6100   7.7300   9.9200 H     1   SOL   0.4170
1533   HW2   8.5800   7.1400   8.9800 H     1   SOL   0.4170
1534    OW  21.6600  13.1000   5.8000 O     1   SOL  -0.8340
1535   HW1  22.4800  12.8300   6.2100 H     1   SOL   0.4170
1536   HW2  21.5100  13.9900   6.1400 H     1   SOL   0.4170
1537    OW  18.5300  22.6000  18.2700 O     1   SOL  -0.8340
1538   HW1  18.6400  23.3000  17.6200 H     1   SOL   0.4170
1539   HW2  17.6100  22.3500  18.2100 H     1   SOL   0.4170
1540    OW   0.5900  22.3500  27.8100 O     1   SOL  -0.8340
1541   HW1   1.4900  22.3000  27.4800 H     1   SOL   0.4170
1542   HW2   0.6900  22.3700  28.7600 H     1   SOL   0.4170
1543    OW   6.4400  27.8900  19.2400 O     1   SOL  -0.8340
1544   HW1   6.5600  28.8200  19.4000 H     1   SOL   0.4170
1545   HW2   6.2600  27.8300  18.3000 H     1   SOL   0.4170
1546    OW   7.4000  20.7600  16.2200 O     1   SOL  -0.8340
1547   HW1   7.9500  21.5300  16.0600 H     1   SOL   0.4170
1548   HW2   6.6000  21.1100  16.6000 H     1   SOL   0.4170
1549    OW   2.3800  27.7100  23.2300 O     1   SOL  -0.8340
1550   HW1   2.2200  27.0800  22.5200 H     1   SOL   0.4170
1551   HW2   1.5100  28.0000  23.5000 H     1   SOL   0.4170
1552    OW  21.5400   4.3800   7.7500 O     1   SOL  -0.8340
1553   HW1  21.3600   4.8100   8.5800 H     1   SOL   0.4170
1554   HW2  21.3300   5.0400   7.0900 H     1   SOL   0.4170
1555    OW   6.6400   1.2500  16.3900 O     1   SOL  -0.8340
1556   HW1   7.3400   1.3400  15.7400 H     1   SOL   0.4170
1557   HW2   6.1400   2.0700  16.3100 H     1   SOL   0.4170
1558    OW  25.8900  15.1800  20.1000 O     1   SOL  -0.8340
1559   HW1  25.1700  15.0700  19.4800 H     1   SOL   0.4170
1560   HW2  26.6200  14.7000  19.7100 H     1   SOL   0.4170
1561    OW   5.9400  17.3800   7.9600 O     1   SOL  -0.8340
1562   HW1   6.4600  16.7900   7.4200 H     1   SOL   0.4170
1563   HW2   5.6000  18.0300   7.3400 H     1   SOL   0.4170
1564    OW  26.0300   0.7700   6.9600 O     1   SOL  -0.8340
1565   HW1  26.7800   0.6900   7.5500 H     1   SOL   0.4170
1566   HW2  25.4200   0.1000   7.2500 H     1   SOL   0.4170
1567    OW   2.1400  28.3300  18.5700 O     1   SOL  -0.8340
1568   HW1   1.2500  28.5900  18.8300 H     1   SOL   0.4170
1569   HW2   2.3400  28.8800  17.8100 H     1   SOL   0.4170
1570    OW  13.3000  16.7800  21.5700 O     1   SOL  -0.8340
1571   HW1  13.0800  17.4200  20.8900 H     1   SOL   0.4170
1572   HW2  14.1400  16.4100  21.2900 H     1   SOL   0.4170
1573    OW   4.5500  11.0800   1.3200 O     1   SOL  -0.8340
1574   HW1   4.3400  10.5200   0.5800 H     1   SOL   0.4170
1575   HW2   3.7000  11.4000   1.6200 H     1   SOL   0.4170
1576    OW   4.3600   2.8600  17.3400 O     1   SOL  -0.8340
1577   HW1   5.1000   3.0000  17.9200 H     1   SOL   0.4170
1578   HW2   3.7700   3.6000  17.5000 H     1   SOL   0.4170
1579    OW  23.6300  27.0200   6.2900 O     1   SOL  -0.8340
1580   HW1  23.1800  27.2200   7.1100 H     1   SOL   0.4170
1581   HW2  23.4100  26.1100   6.1200 H     1   SOL   0.4170
1582    OW   5.4100   3.1200  14.3000 O     1   SOL  -0.8340
1583   HW1   4.9300   3.5000  13.5600 H     1   SOL   0.4170
1584   HW2   4.8100   2.4600  14.6600 H     1   SOL   0.4170
1585    OW  28.5500  15.0600   0.3900 O     1   SOL  -0.8340
1586   HW1  27.6600  15.1400   0.7300 H     1   SOL   0.4170
1587   HW2  28.5000  15.3700  -0.5100 H     1   SOL   0.4170
1588    OW  18.8700  25.6800   8.4200 O     1   SOL  -0.8340
1589   HW1  19.7200  25.4100   8.0700 H     1   SOL   0.4170
1590   HW2  18.2500  25.0500   8.0500 H     1   SOL   0.4170
1591    OW   4.3900  14.0500  24.5100 O     1   SOL  -0.8340
1592   HW1   3.9900  13.8000  25.3400 H     1   SOL   0.4170
1593   HW2   4.8200  14.8900  24.6900 H     1   SOL   0.4170
1594    OW  17.8100  19.7100  24.4800 O     1   SOL  -0.8340
1595   HW1  18.5600  19.9900  25.0100 H     1   SOL   0.4170
1596   HW2  18.1700  19.5600  23.6100 H     1   SOL   0.4170
1597    OW  20.3400  10.3100   3.3300 O     1   SOL  -0.8340
1598   HW1  19.4100  10.1500   3.5200 H     1   SOL   0.4170
1599   HW2  20.3300  11.0700   2.7400 H     1   SOL   0.4170
1600    OW   2.3300  21.2900   8.9900 O     1   SOL  -0.8340
1601   HW1   1.6500  21.8300   8.6000 H     1   SOL   0.4170
1602   HW2   3.0900  21.8700   9.0600 H     1   SOL   0.4170
1603    OW  26.9900  16.9900  10.2300 O     1   SOL  -0.8340
1604   HW1  27.1400  16.9100  11.1700 H     1   SOL   0.4170
1605   HW2  27.1000  16.1000   9.8900 H     1   SOL   0.4170
1606    OW   3.4300  11.3200  18.8600 O     1   SOL  -0.8340
1607   HW1   4.0600  10.6600  19.1400 H     1   SOL   0.4170
1608   HW2   3.9300  11.9000  18.2800 H     1   SOL   0.4170
1609    OW  21.5000  12.8100   9.1300 O     1   SOL  -0.8340
1610   HW1  22.3900  12.8900   9.4600 H     1   SOL   0.4170
1611   HW2  21.3500  13.6200   8.6500 H     1   SOL   0.4170
1612    OW  27.7100  19.1500  22.3000 O     1   SOL  -0.8340
1613   HW1  28.1000  18.2800  22.3600 H     1   SOL   0.4170
1614   HW2  28.1500  19.6600  22.9800 H     1   SOL   0.4170
1615    OW   9.9500  22.6500   2.3900 O     1   SOL  -0.8340
1616   HW1   9.8100  23.5800   2.2400 H     1   SOL   0.4170
1617   HW2   9.1900  22.3700   2.9000 H     1   SOL   0.4170
1618    OW  10.0200  18.2600  19.2700 O     1   SOL  -0.8340
1619   HW1  10.1100  17.3200  19.4500 H     1   SOL   0.4170
1620   HW2   9.0900  18.4400  19.4200 H     1   SOL   0.4170
1621    OW  21.0800  21.7400  19.6900 O     1   SOL  -0.8340
1622   HW1  20.2300  21.8300  19.2600 H     1   SOL   0.4170
1623   HW2  20.8800  21.3500  20.5400 H     1   SOL   0.4170
1624    OW  18.9000  14.7200  22.2800 O     1   SOL  -0.8340
1625   HW1  18.8300  13.7700  22.2800 H     1   SOL   0.4170
1626   HW2  18.0100  15.0300  22.4500 H     1   SOL   0.4170
1627    OW  17.4100  19.1000  15.4900 O     1   SOL  -0.8340
1628   HW1  17.7500  18.3600  14.9900 H     1   SOL   0.4170
1629   HW2  16.8300  19.5500  14.8800 H     1   SOL   0.4170
1630    OW  13.6700  21.1500  19.4100 O     1   SOL  -0.8340
1631   HW1  14.0000  21.5100  20.2300 H     1   SOL   0.4170
1632   HW2  12.7200  21.1000  19.5300 H     1   SOL   0.4170
1633    OW   3.7500  19.3800  10.7500 O     1   SOL  -0.8340
1634   HW1   3.6000  19.8900  11.5500 H     1   SOL   0.4170
1635   HW2   3.1600  19.7700  10.1100 H     1   SOL   0.4170
1636    OW  16.9900  27.4800  21.3800 O     1   SOL  -0.8340
1637   HW1  17.6300  26.9200  20.9400 H     1   SOL   0.4170
1638   HW2  16.1600  27.3000  20.9400 H     1   SOL   0.4170
1639    OW   0.9300  25.2200  17.1300 O     1   SOL  -0.8340
1640   HW1   0.5400  25.9800  16.7100 H     1   SOL   0.4170
1641   HW2   0.4100  24.4800  16.8300 H     1   SOL   0.4170
1642    OW  18.4400   0.9400  14.1900 O     1   SOL  -0.8340
1643   HW1  17.6300   1.3400  14.5100 H     1   SOL   0.4170
1644   HW2  18.8400   0.5500  14.9600 H     1   SOL   0.4170
1645    OW   6.2900  22.3000  11.7800 O     1   SOL  -0.8340
1646   HW1   7.1200  21.9100  12.0500 H     1   SOL   0.4170
1647   HW2   6.4700  23.2400  11.7100 H     1   SOL   0.4170
1648    OW  10.6400   0.8600  27.7900 O     1   SOL  -0.8340
1649   HW1  11.5400   0.6200  27.5800 H     1   SOL   0.4170
1650   HW2  10.1200   0.4100  27.1300 H     1   SOL   0.4170
1651    OW   0.2100   0.2800  24.4000 O     1   SOL  -0.8340
1652   HW1   0.6000   1.0500  24.8100 H     1   SOL   0.4170
1653   HW2   0.0600   0.5400  23.5000 H     1   SOL   0.4170
1654    OW  19.4000  19.9300   6.1900 O     1   SOL  -0.8340
1655   HW1  19.9300  19.6700   6.9400 H     1   SOL   0.4170
1656   HW2  18.8800  19.1600   5.9800 H     1   SOL   0.4170
1657    OW  25.1600  13.0100  21.8900 O     1   SOL  -0.8340
1658   HW1  25.1800  13.8700  21.4700 H     1   SOL   0.4170
1659   HW2  24.7100  13.1700  22.7300 H     1   SOL   0.4170
1660    OW   3.5400  10.2300   5.0600 O     1   SOL  -0.8340
1661   HW1   4.3600   9.9000   5.4200 H     1   SOL   0.4170
1662   HW2   3.8100  10.7200   4.2800 H     1   SOL   0.4170
1663    OW   0.4100  18.9700   6.6600 O     1   SOL  -0.8340
1664   HW1   0.5500  18.6000   7.5400 H     1   SOL   0.4170
1665   HW2  -0.3500  19.5500   6.7700 H     1   SOL   0.4170
1666    OW  15.9300  14.8600   7.8300 O     1   SOL  -0.8340
1667   HW1  15.2400  14.2100   7.9500 H     1   SOL   0.4170
1668   HW2  15.5400  15.5100   7.2400 H     1   SOL   0.4170
1669    OW  13.3500  15.4000  23.8700 O     1   SOL  -0.8340
1670   HW1  13.3700  15.9500  23.0900 H     1   SOL   0.4170
1671   HW2  13.8900  15.8700  24.5100 H     1   SOL   0.4170
1672    OW  18.2000  10.5400  27.5500 O     1   SOL  -0.8340
1673   HW1  18.9100   9.8900  27.5300 H     1   SOL   0.4170
1674   HW2  17.5200  10.1300  28.0900 H     1   SOL   0.4170
1675    OW  21.7300  19.7900   8.6500 O     1   SOL  -0.8340
1676   HW1  22.3900  20.3300   9.1000 H     1   SOL   0.4170
1677   HW2  20.9000  20.2400   8.8100 H     1   SOL   0.4170
1678    OW  15.6400  12.4800  27.6500 O     1   SOL  -0.8340
1679   HW1  15.0700  13.1900  27.9300 H     1   SOL   0.4170
1680   HW2  16.3900  12.9200  27.2500 H     1   SOL   0.4170
1681    OW  17.4200   0.0200  28.3500 O     1   SOL  -0.8340
1682   HW1  17.9300  -0.6000  27.8300 H     1   SOL   0.4170
1683   HW2  17.6700  -0.1800  29.2600 H     1   SOL   0.4170
1684    OW  15.0500  19.3300   4.5300 O     1   SOL  -0.8340
1685   HW1  15.4900  18.6300   4.0400 H     1   SOL   0.4170
1686   HW2  15.1800  19.1000   5.4500 H     1   SOL   0.4170
1687    OW   7.1600  19.6100  19.5900 O     1   SOL  -0.8340
1688   HW1   6.3500  19.2800  19.9600 H     1   SOL   0.4170
1689   HW2   7.3100  20.4400  20.0400 H     1   SOL   0.4170
1690    OW  11.6100  15.4600  18.2800 O     1   SOL  -0.8340
1691   HW1  11.1600  15.3800  19.1200 H     1   SOL   0.4170
1692   HW2  12.5400  15.4800  18.5100 H     1   SOL   0.4170
1693    OW  16.8400   7.3400  10.1700 O     1   SOL  -0.8340
1694   HW1  17.5900   6.8100   9.9100 H     1   SOL   0.4170
1695   HW2  17.1900   7.9700  10.8000 H     1   SOL   0.4170
1696    OW  12.7700   8.9600   9.2100 O     1   SOL  -0.8340
1697   HW1  13.5000   8.9700   9.8200 H     1   SOL   0.4170
1698   HW2  12.0100   8.7700   9.7500 H     1   SOL   0.4170
1699    OW  26.7300  10.5800   3.7200 O     1   SOL  -0.8340
1700   HW1  27.6300  10.6700   3.4200 H     1   SOL   0.4170
1701   HW2  26.6600   9.6600   4.0000 H     1   SOL   0.4170
1702    OW  21.2100  24.3100  14.3700 O     1   SOL  -0.8340
1703   HW1  21.0300  24.1000  13.4500 H     1   SOL   0.4170
1704   HW2  22.1600  24.2300  14.4500 H     1   SOL   0.4170
1705    OW  13.2800  14.6100  13.5600 O     1   SOL  -0.8340
1706   HW1  12.4600  14.4500  13.1000 H     1   SOL   0.4170
1707   HW2  13.0700  14.4900  14.4800 H     1   SOL   0.4170
1708    OW  13.9900   1.3400   4.2200 O     1   SOL  -0.8340
1709   HW1  14.3800   1.5400   5.0700 H     1   SOL   0.4170
1710   HW2  13.1000   1.0400   4.4300 H     1   SOL   0.4170
1711    OW   1.0800   5.7600   9.9900 O     1   SOL  -0.8340
1712   HW1   0.9100   6.6800   9.8100 H     1   SOL   0.4170
1713   HW2   1.4100   5.4100   9.1600 H     1   SOL   0.4170
1714    OW   0.5400  14.5200  20.8200 O     1   SOL  -0.8340
1715   HW1  -0.0200  13.8200  21.1600 H     1   SOL   0.4170
1716   HW2   1.1900  14.6600  21.5100 H     1   SOL   0.4170
1717    OW   1.6900   0.9100  13.2900 O     1   SOL  -0.8340
1718   HW1   1.7700  -0.0400  13.1400 H     1   SOL   0.4170
1719   HW2   1.7300   1.2900  12.4100 H     1   SOL   0.4170
1720    OW  17.4800   9.2000  12.1300 O     1   SOL  -0.8340
1721   HW1  18.3800   8.9500  12.3500 H     1   SOL   0.4170
1722   HW2  17.0100   9.1600  12.9600 H     1   SOL   0.4170
1723    OW  10.7100  13.7300  12.7900 O     1   SOL  -0.8340
1724   HW1  10.1800  14.0400  13.5200 H     1   SOL   0.4170
1725   HW2  10.2300  14.0200  12.0100 H     1   SOL   0.4170
1726    OW   9.2500  21.0000   5.7200 O     1   SOL  -0.8340
1727   HW1  10.0600  20.6100   5.3900 H     1   SOL   0.4170
1728   HW2   8.6100  20.8800   5.0100 H     1   SOL   0.4170
1729    OW  19.5000  11.4300  19.9500 O     1   SOL  -0.8340
1730   HW1  18.8000  11.1100  20.5100 H     1   SOL   0.4170
1731   HW2  20.2300  11.5900  20.5500 H     1   SOL   0.4170
1732    OW   9.2400  10.5400  28.3800 O     1   SOL  -0.8340
1733   HW1   8.9700  10.7000  29.2900 H     1   SOL   0.4170
1734   HW2  10.1900  10.4700  28.4200 H     1   SOL   0.4170
1735    OW  20.9300  13.3900   3.0600 O     1   SOL  -0.8340
1736   HW1  21.6800  13.8900   2.7500 H     1   SOL   0.4170
1737   HW2  21.1800  13.1000   3.9400 H     1   SOL   0.4170
1738    OW  14.0500  10.5700  26.1200 O     1   SOL  -0.8340
1739   HW1  14.7600   9.9900  25.8600 H     1   SOL   0.4170
1740   HW2  14.1200  11.3100  25.5300 H     1   SOL   0.4170
1741    OW   6.9700  26.6900  22.9800 O     1   SOL  -0.8340
1742   HW1   6.6200  27.5800  22.9300 H     1   SOL   0.4170
1743   HW2   6.4300  26.1800  22.3800 H     1   SOL   0.4170
1744    OW   5.4300   6.3500   2.5200 O     1   SOL  -0.8340
1745   HW1   5.6400   7.2800   2.5900 H     1   SOL   0.4170
1746   HW2   6.2800   5.9300   2.3600 H     1   SOL   0.4170
1747    OW  23.7100  25.1000  21.4500 O     1   SOL  -0.8340
1748   HW1  23.3800  24.7100  22.2600 H     1   SOL   0.4170
1749   HW2  23.0800  25.8000  21.2600 H     1   SOL   0.4170
1750    OW  10.8900  21.9600  17.3000 O     1   SOL  -0.8340
1751   HW1  10.9800  22.9100  17.3200 H     1   SOL   0.4170
1752   HW2  10.6100  21.7200  18.1800 H     1   SOL   0.4170
1753    OW  23.0300  18.1700   6.7700 O     1   SOL  -0.8340
1754   HW1  22.4800  18.7600   7.2900 H     1   SOL   0.4170
1755   HW2  23.8200  18.0600   7.3000 H     1   SOL   0.4170
1756    OW  27.5800   5.0000  16.2600 O     1   SOL  -0.8340
1757   HW1  26.9000   5.3100  15.6600 H     1   SOL   0.4170
1758   HW2  28.1200   4.4100  15.7300 H     1   SOL   0.4170
1759    OW   0.5500  11.7500   4.6100 O     1   SOL  -0.8340
1760   HW1   0.7100  12.0400   5.5000 H     1   SOL   0.4170
1761   HW2  -0.1800  12.2900   4.3100 H     1   SOL   0.4170
1762    OW  16.4700   2.5000   9.2100 O     1   SOL  -0.8340
1763   HW1  16.7500   3.3500   9.5600 H     1   SOL   0.4170
1764   HW2  16.7800   1.8600   9.8500 H     1   SOL   0.4170
1765    OW   8.1200  13.2400  17.5200 O     1   SOL  -0.8340
1766   HW1   8.5900  12.8800  18.2800 H     1   SOL   0.4170
1767   HW2   8.5300  14.0900  17.3700 H     1   SOL   0.4170
1768    OW   3.8700   1.1800   1.1600 O     1   SOL  -0.8340
1769   HW1   3.5200   0.9400   2.0200 H     1   SOL   0.4170
1770   HW2   4.7600   1.5000   1.3400 H     1   SOL   0.4170
1771    OW   5.5900   9.1900  12.1500 O     1   SOL  -0.8340
1772   HW1   4.9800   9.8600  12.4600 H     1   SOL   0.4170
1773   HW2   6.2700   9.6800  11.6900 H     1   SOL   0.4170
1774    OW  12.9600  11.1500   4.8500 O     1   SOL  -0.8340
1775   HW1  12.9500  12.1100   4.8500 H     1   SOL   0.4170
1776   HW2  13.3300  10.9100   4.0000 H     1   SOL   0.4170
1777    OW  19.3600   8.3500  16.8600 O     1   SOL  -0.8340
1778   HW1  19.9900   8.6100  16.1900 H     1   SOL   0.4170
1779   HW2  19.6400   7.4700  17.1100 H     1   SOL   0.4170
1780    OW  19.7100  29.4100   6.8500 O     1   SOL  -0.8340
1781   HW1  20.2200  29.1600   6.0700 H     1   SOL   0.4170
1782   HW2  18.8000  29.2100   6.6100 H     1   SOL   0.4170
1783    OW  19.2500  20.3100  17.3000 O     1   SOL  -0.8340
1784   HW1  19.1500  21.2200  17.5900 H     1   SOL   0.4170
1785   HW2  18.3500  20.0200  17.1400 H     1   SOL   0.4170
1786    OW   1.6600   8.7900   3.2500 O     1   SOL  -0.8340
1787   HW1   1.2400   9.3900   3.8700 H     1   SOL   0.4170
1788   HW2   2.5400   8.6500   3.6100 H     1   SOL   0.4170
1789    OW  12.5400   7.5600   5.1200 O     1   SOL  -0.8340
1790   HW1  11.6200   7.6500   4.8800 H     1   SOL   0.4170
1791   HW2  12.6000   6.6900   5.5100 H     1   SOL   0.4170
1792    OW   3.0400   3.8200  11.8900 O     1   SOL  -0.8340
1793   HW1   2.3500   3.4000  11.3700 H     1   SOL   0.4170
1794   HW2   2.9400   4.7500  11.7100 H     1   SOL   0.4170
1795    OW  24.7200  16.6800   1.3300 O     1   SOL  -0.8340
1796   HW1  24.2800  15.9000   1.6800 H     1   SOL   0.4170
1797   HW2  25.2200  17.0200   2.0700 H     1   SOL   0.4170
1798    OW  18.8100   4.8500  26.3100 O     1   SOL  -0.8340
1799   HW1  18.5400   5.4000  27.0500 H     1   SOL   0.4170
1800   HW2  19.5400   4.3400  26.6500 H     1   SOL   0.4170
1801    OW  19.0400  27.9500   3.5000 O     1   SOL  -0.8340
1802   HW1  19.4500  27.1000   3.6800 H     1   SOL   0.4170
1803   HW2  19.6700  28.5900   3.8200 H     1   SOL   0.4170
1804    OW  27.1200  17.0400  15.8900 O     1   SOL  -0.8340
1805   HW1  26.2100  16.7500  15.9600 H     1   SOL   0.4170
1806   HW2  27.1000  17.9700  16.1100 H     1   SOL   0.4170
1807    OW  28.0700   1.9300  11.4900 O     1   SOL  -0.8340
1808   HW1  27.3700   2.5500  11.6900 H     1   SOL   0.4170
1809   HW2  27.8200   1.1300  11.9500 H     1   SOL   0.4170
1810    OW  25.1300   2.6500   9.3300 O     1   SOL  -0.8340
1811   HW1  24.8100   2.3900   8.4700 H     1   SOL   0.4170
1812   HW2  24.3900   3.1100   9.7300 H     1   SOL   0.4170
1813    OW  29.3300  11.6700  24.3700 O     1   SOL  -0.8340
1814   HW1  30.1600  11.4500  23.9600 H     1   SOL   0.4170
1815   HW2  28.8500  12.1500  23.6900 H     1   SOL   0.4170
1816    OW  14.8000   1.4400  19.6800 O     1   SOL  -0.8340
1817   HW1  14.5900   0.8200  20.3800 H     1   SOL   0.4170
1818   HW2  14.4200   1.0500  18.9000 H     1   SOL   0.4170
1819    OW  29.0900   3.7000   7.3500 O     1   SOL  -0.8340
1820   HW1  29.7800   4.3600   7.2600 H     1   SOL   0.4170
1821   HW2  28.4100   3.9800   6.7500 H     1   SOL   0.4170
1822    OW   4.1900  13.8500   8.5600 O     1   SOL  -0.8340
1823   HW1   4.4200  14.0600   9.4600 H     1   SOL   0.4170
1824   HW2   4.7800  13.1400   8.3100 H     1   SOL   0.4170
1825    OW  29.2400  16.1100  17.4900 O     1   SOL  -0.8340
1826   HW1  29.0500  16.4600  18.3600 H     1   SOL   0.4170
1827   HW2  28.4100  16.1800  17.0200 H     1   SOL   0.4170
1828    OW  27.4500  20.1500   4.6600 O     1   SOL  -0.8340
1829   HW1  27.2800  20.0700   3.7300 H     1   SOL   0.4170
1830   HW2  28.3500  20.4800   4.7100 H     1   SOL   0.4170
1831    OW  28.3000   1.3700  17.0800 O     1   SOL  -0.8340
1832   HW1  27.8300   0.9000  16.3800 H     1   SOL   0.4170
1833   HW2  27.6200   1.8000  17.5800 H     1   SOL   0.4170
1834    OW   1.8100  11.9400  14.3800 O     1   SOL  -0.8340
1835   HW1   1.9300  12.8300  14.7100 H     1   SOL   0.4170
1836   HW2   1.0700  12.0100  13.7800 H     1   SOL   0.4170
1837    OW  29.4600  22.0200   1.0900 O     1   SOL  -0.8340
1838   HW1  29.7400  22.1200   2.0000 H     1   SOL   0.4170
1839   HW2  28.5600  22.3500   1.0800 H     1   SOL   0.4170
1840    OW  15.0500  29.4900   9.1400 O     1   SOL  -0.8340
1841   HW1  14.9500  28.6200   9.5200 H     1   SOL   0.4170
1842   HW2  14.7000  30.0800   9.8000 H     1   SOL   0.4170
1843    OW  23.4400   2.9200   2.4800 O     1   SOL  -0.8340
1844   HW1  23.7400   2.5900   3.3200 H     1   SOL   0.4170
1845   HW2  24.1400   2.6800   1.8700 H     1   SOL   0.4170
1846    OW  25.7100  10.0600  12.4700 O     1   SOL  -0.8340
1847   HW1  26.5000   9.5500  12.6300 H     1   SOL   0.4170
1848   HW2  25.1100   9.4400  12.0400 H     1   SOL   0.4170
1849    OW  17.8400   4.3800  14.9400 O     1   SOL  -0.8340
1850   HW1  17.3100   5.1700  15.1000 H     1   SOL   0.4170
1851   HW2  17.7600   4.2200  14.0000 H     1   SOL   0.4170
1852    OW  10.0400   6.2800  25.1800 O     1   SOL  -0.8340
1853   HW1  10.3000   6.9900  25.7800 H     1   SOL   0.4170
1854   HW2   9.2300   5.9400  25.5500 H     1   SOL   0.4170
1855    OW  23.7600  19.0300  11.0300 O     1   SOL  -0.8340
1856   HW1  24.4200  19.6600  11.3200 H     1   SOL   0.4170
1857   HW2  23.0600  19.0900  11.6900 H     1   SOL   0.4170
1858    OW   7.3600  15.3800  19.7100 O     1   SOL  -0.8340
1859   HW1   6.7800  14.6800  20.0300 H     1   SOL   0.4170
1860   HW2   7.2900  15.3300  18.7600 H     1   SOL   0.4170
1861    OW  25.7300  13.6600   4.2500 O     1   SOL  -0.8340
1862   HW1  25.3700  12.9800   3.6900 H     1   SOL   0.4170
1863   HW2  25.9700  13.2100   5.0600 H     1   SOL   0.4170
1864    OW   7.9300  24.3900   9.5900 O     1   SOL  -0.8340
1865   HW1   8.0600  23.8600   8.8100 H     1   SOL   0.4170
1866   HW2   7.3200  25.0800   9.3100 H     1   SOL   0.4170
1867    OW   1.6400   5.4400   7.2100 O     1   SOL  -0.8340
1868   HW1   2.4800   5.5500   7.6500 H     1   SOL   0.4170
1869   HW2   1.6900   6.0400   6.4600 H     1   SOL   0.4170
1870    OW   6.8700   9.1200   8.7600 O     1   SOL  -0.8340
1871   HW1   6.6300   8.2800   8.3400 H     1   SOL   0.4170
1872   HW2   7.3500   8.8600   9.5400 H     1   SOL   0.4170
1873    OW  27.6000   8.1500  24.0000 O     1   SOL  -0.8340
1874   HW1  27.5300   7.4600  23.3500 H     1   SOL   0.4170
1875   HW2  26.9000   7.9700  24.6300 H     1   SOL   0.4170
1876    OW   1.1700   8.3600   9.5100 O     1   SOL  -0.8340
1877   HW1   0.7300   8.7400   8.7500 H     1   SOL   0.4170
1878   HW2   1.9000   8.9500   9.6800 H     1   SOL   0.4170
1879    OW  11.7100  27.1000   4.8500 O     1   SOL  -0.8340
1880   HW1  12.5000  27.4600   5.2600 H     1   SOL   0.4170
1881   HW2  11.5300  26.3000   5.3500 H     1   SOL   0.4170
1882    OW   6.3800  12.4300  22.7700 O     1   SOL  -0.8340
1883   HW1   5.7100  12.9800  23.1700 H     1   SOL   0.4170
1884   HW2   6.1200  11.5400  23.0000 H     1   SOL   0.4170
1885    OW  18.6700   0.0600  25.0100 O     1   SOL  -0.8340
1886   HW1  19.4600   0.3200  25.4800 H     1   SOL   0.4170
1887   HW2  18.9200   0.0800  24.0900 H     1   SOL   0.4170
1888    OW   3.0100  21.5500   5.9400 O     1   SOL  -0.8340
1889   HW1   2.9200  21.2700   6.8500 H     1   SOL   0.4170
1890   HW2   2.2600  21.1600   5.5000 H     1   SOL   0.4170
1891    OW  20.0400   7.4000   5.7800 O     1   SOL  -0.8340
1892   HW1  20.2800   8.3100   5.6100 H     1   SOL   0.4170
1893   HW2  19.1100   7.4200   5.9700 H     1   SOL   0.4170
1894    OW  11.6400  27.3600  25.8600 O     1   SOL  -0.8340
1895   HW1  10.7300  27.0700  25.9300 H     1   SOL   0.4170
1896   HW2  12.1400  26.7000  26.3400 H     1   SOL   0.4170
1897    OW  15.2900  10.0100   5.8000 O     1   SOL  -0.8340
1898   HW1  15.0300   9.2700   6.3400 H     1   SOL   0.4170
1899   HW2  14.4800  10.5000   5.6600 H     1   SOL   0.4170
1900    OW  23.4000   0.2700   7.7600 O     1   SOL  -0.8340
1901   HW1  22.9200   0.8900   7.2000 H     1   SOL   0.4170
1902   HW2  22.7500  -0.4100   7.9700 H     1   SOL   0.4170
1903    OW  19.7900  25.5300  11.1700 O     1   SOL  -0.8340
1904   HW1  20.0900  26.3500  10.7900 H     1   SOL   0.4170
1905   HW2  19.1900  25.1700  10.5100 H     1   SOL   0.4170
1906    OW  19.9400  25.7200  25.5500 O     1   SOL  -0.8340
1907   HW1  19.4800  24.8800  25.6300 H     1   SOL   0.4170
1908   HW2  19.5200  26.1500  24.8000 H     1   SOL   0.4170
1909    OW   0.9400  20.2200  18.0100 O     1   SOL  -0.8340
1910   HW1   0.5000  20.0000  18.8300 H     1   SOL   0.4170
1911   HW2   1.0200  19.3900  17.5500 H     1   SOL   0.4170
1912    OW  26.2000  16.7800   3.9200 O     1   SOL  -0.8340
1913   HW1  26.7400  16.2300   4.4900 H     1   SOL   0.4170
1914   HW2  26.1400  17.6200   4.3700 H     1   SOL   0.4170
1915    OW  11.4900  17.6300   6.8400 O     1   SOL  -0.8340
1916   HW1  10.8600  16.9200   6.6900 H     1   SOL   0.4170
1917   HW2  11.5100  18.1000   6.0100 H     1   SOL   0.4170
1918    OW  26.7000  19.8700   2.1100 O     1   SOL  -0.8340
1919   HW1  27.4200  19.6500   1.5100 H     1   SOL   0.4170
1920   HW2  25.9300  19.9200   1.5400 H     1   SOL   0.4170
1921    OW  26.4500  23.9500  19.3400 O     1   SOL  -0.8340
1922   HW1  25.8800  24.3900  18.7100 H     1   SOL   0.4170
1923   HW2  25.8600  23.4000  19.8600 H     1   SOL   0.4170
1924    OW  16.9900  25.0200   4.8200 O     1   SOL  -0.8340
1925   HW1  16.9300  25.9400   4.5600 H     1   SOL   0.4170
1926   HW2  17.0600  25.0500   5.7700 H     1   SOL   0.4170
1927    OW   1.3300  18.6200  26.7000 O     1   SOL  -0.8340
1928   HW1   0.9700  17.8100  27.0600 H     1   SOL   0.4170
1929   HW2   2.2700  18.5700  26.8900 H     1   SOL   0.4170
1930    OW  15.8200   7.9700   0.4900 O     1   SOL  -0.8340
1931   HW1  15.7700   8.2100   1.4100 H     1   SOL   0.4170
1932   HW2  15.4600   8.7200   0.0200 H     1   SOL   0.4170
1933    OW  22.9400   7.2800   5.7700 O     1   SOL  -0.8340
1934   HW1  22.0500   6.9400   5.7200 H     1   SOL   0.4170
1935   HW2  22.8300   8.2200   5.9200 H     1   SOL   0.4170
1936    OW  27.1000  13.7600  24.0100 O     1   SOL  -0.8340
1937   HW1  28.0300  13.9300  24.1700 H     1   SOL   0.4170
1938   HW2  27.0600  13.5400  23.0800 H     1   SOL   0.4170
1939    OW  11.7400  28.5900  13.3700 O     1   SOL  -0.8340
1940   HW1  11.4800  28.2100  14.2100 H     1   SOL   0.4170
1941   HW2  11.9000  27.8300  12.8000 H     1   SOL   0.4170
1942    OW  10.3900  26.3600  23.2600 O     1   SOL  -0.8340
1943   HW1  11.1600  26.8500  23.5500 H     1   SOL   0.4170
1944   HW2  10.0100  26.9000  22.5700 H     1   SOL   0.4170
1945    OW  13.5700  21.3900  15.9100 O     1   SOL  -0.8340
1946   HW1  12.6900  21.4600  16.2800 H     1   SOL   0.4170
1947   HW2  13.9500  22.2600  16.0200 H     1   SOL   0.4170
1948    OW  24.6600  11.1300  25.6200 O     1   SOL  -0.8340
1949   HW1  25.4400  10.5900  25.7300 H     1   SOL   0.4170
1950   HW2  24.8400  11.9200  26.1300 H     1   SOL   0.4170
1951    OW  23.0400   3.6500  11.0500 O     1   SOL  -0.8340
1952   HW1  22.1300   3.4000  10.9100 H     1   SOL   0.4170
1953   HW2  23.0000   4.3600  11.6900 H     1   SOL   0.4170
1954    OW  21.5800  11.5100  21.7800 O     1   SOL  -0.8340
1955   HW1  21.3900  10.5800  21.7800 H     1   SOL   0.4170
1956   HW2  21.6100  11.7500  22.7100 H     1   SOL   0.4170
1957    OW  21.6900   5.5800  15.1300 O     1   SOL  -0.8340
1958   HW1  21.2400   4.7400  15.2300 H     1   SOL   0.4170
1959   HW2  21.7400   5.9400  16.0100 H     1   SOL   0.4170
1960    OW  21.6100   6.4400  10.4600 O     1   SOL  -0.8340
1961   HW1  20.7800   6.6600  10.0400 H     1   SOL   0.4170
1962   HW2  21.4500   6.5800  11.4000 H     1   SOL   0.4170
1963    OW   0.0700   9.2600  27.9300 O     1   SOL  -0.8340
1964   HW1   0.6800   9.5000  28.6200 H     1   SOL   0.4170
1965   HW2   0.3100   8.3600  27.7000 H     1   SOL   0.4170
1966    OW  27.5000   1.4800  29.1000 O     1   SOL  -0.8340
1967   HW1  27.9000   0.6500  28.8400 H     1   SOL   0.4170
1968   HW2  28.0700   1.8100  29.8000 H     1   SOL   0.4170
1969    OW  22.4100  20.1400   0.5800 O     1   SOL  -0.8340
1970   HW1  22.0800  20.9300   1.0000 H     1   SOL   0.4170
1971   HW2  22.3700  19.4700   1.2700 H     1   SOL   0.4170
1972    OW  21.2500  28.1600  28.3700 O     1   SOL  -0.8340
1973   HW1  21.2700  28.0200  29.3100 H     1   SOL   0.4170
1974   HW2  20.3500  27.9700  28.1100 H     1   SOL   0.4170
1975    OW  16.2500  21.0500  29.5700 O     1   SOL  -0.8340
1976   HW1  16.0000  20.1400  29.4000 H     1   SOL   0.4170
1977   HW2  15.4300  21.5400  29.5400 H     1   SOL   0.4170
1978    OW  29.2400  29.0000  20.0800 O     1   SOL  -0.8340
1979   HW1  28.5200  29.6300  20.0200 H     1   SOL   0.4170
1980   HW2  28.9100  28.3100  20.6500 H     1   SOL   0.4170
1981    OW  25.6400   6.4800   7.0100 O     1   SOL  -0.8340
1982   HW1  26.3600   6.2500   7.6000 H     1   SOL   0.4170
1983   HW2  24.8600   6.4400   7.5600 H     1   SOL   0.4170
1984    OW   1.3800  18.6400  20.8900 O     1   SOL  -0.8340
1985   HW1   0.5400  18.2700  20.5900 H     1   SOL   0.4170
1986   HW2   1.8800  17.8900  21.1800 H     1   SOL   0.4170
1987    OW  26.9400   6.9700  27.4000 O     1   SOL  -0.8340
1988   HW1  27.7300   7.5100  27.3500 H     1   SOL   0.4170
1989   HW2  27.2400   6.0800  27.1900 H     1   SOL   0.4170
1990    OW   9.8800   1.4400  19.7600 O     1   SOL  -0.8340
1991   HW1  10.5400   1.1400  20.3800 H     1   SOL   0.4170
1992   HW2   9.0500   1.1900  20.1600 H     1   SOL   0.4170
1993    OW   4.3700  24.8700  11.2300 O     1   SOL  -0.8340
1994   HW1   5.0100  25.0100  11.9300 H     1   SOL   0.4170
1995   HW2   4.5300  23.9700  10.9400 H     1   SOL   0.4170
1996    OW  25.5000  11.5400   0.3100 O     1   SOL  -0.8340
1997   HW1  26.4400  11.3800   0.4000 H     1   SOL   0.4170
1998   HW2  25.1700  10.7500  -0.1100 H     1   SOL   0.4170
1999    OW   4.8900  18.0200  19.9800 O     1   SOL  -0.8340
2000   HW1   4.3400  17.5200  20.5900 H     1   SOL   0.4170
2001   HW2   4.3400  18.7400  19.6900 H     1   SOL   0.4170
2002    OW   4.3900  18.2900  23.2100 O     1   SOL  -0.8340
2003   HW1   5.0600  18.9800  23.1900 H     1   SOL   0.4170
2004   HW2   4.8200  17.5300  22.8300 H     1   SOL   0.4170
2005    OW  25.0000  20.3900  29.4600 O     1   SOL  -0.8340
2006   HW1  24.0500  20.4600  29.5600 H     1   SOL   0.4170
2007   HW2  25.1300  19.8900  28.6500 H     1   SOL   0.4170
2008    OW  24.9100   7.6800  19.8400 O     1   SOL  -0.8340
2009   HW1  25.0300   8.4600  20.3800 H     1   SOL   0.4170
2010   HW2  25.2100   7.9400  18.9700 H     1   SOL   0.4170
2011    OW  25.9900  20.2900   6.8800 O     1   SOL  -0.8340
2012   HW1  26.2500  19.4000   7.1200 H     1   SOL   0.4170
2013   HW2  26.4500  20.4600   6.0600 H     1   SOL   0.4170
2014    OW   2.1400   4.6200  25.6100 O     1   SOL  -0.8340
2015   HW1   2.1000   4.4900  24.6600 H     1   SOL   0.4170
2016   HW2   3.0300   4.3600  25.8500 H     1   SOL   0.4170
2017    OW   9.1400   9.7600   6.7600 O     1   SOL  -0.8340
2018   HW1   8.8500   9.0800   7.3700 H     1   SOL   0.4170
2019   HW2   9.4600  10.4700   7.3100 H     1   SOL   0.4170
2020    OW   2.4700  17.7900   5.0800 O     1   SOL  -0.8340
2021   HW1   2.0100  17.1700   4.5200 H     1   SOL   0.4170
2022   HW2   1.7900  18.1400   5.6600 H     1   SOL   0.4170
2023    OW  24.4900   5.9500  11.9600 O     1   SOL  -0.8340
2024   HW1  24.5300   5.7700  12.9000 H     1   SOL   0.4170
2025   HW2  24.1900   6.8600  11.9000 H     1   SOL   0.4170
2026    OW  20.2200   9.2300  13.0100 O     1   SOL  -0.8340
2027   HW1  20.6800   9.6000  12.2600 H     1   SOL   0.4170
2028   HW2  20.0400   9.9800  13.5700 H     1   SOL   0.4170
2029    OW   9.1400  19.2200  26.6600 O     1   SOL  -0.8340
2030   HW1   9.7400  19.9600  26.7600 H     1   SOL   0.4170
2031   HW2   8.5100  19.5100  25.9900 H     1   SOL   0.4170
2032    OW  25.4600  11.8000  18.7100 O     1   SOL  -0.8340
2033   HW1  25.7500  12.4000  18.0300 H     1   SOL   0.4170
2034   HW2  25.3100  12.3600  19.4700 H     1   SOL   0.4170
2035    OW  18.1500   5.9300  18.5700 O     1   SOL  -0.8340
2036   HW1  18.6500   5.2100  18.2000 H     1   SOL   0.4170
2037   HW2  18.0100   5.6900  19.4800 H     1   SOL   0.4170
2038    OW  26.1100   7.6500   4.5000 O     1   SOL  -0.8340
2039   HW1  26.8300   7.0200   4.4100 H     1   SOL   0.4170
2040   HW2  25.8000   7.5300   5.4000 H     1   SOL   0.4170
2041    OW  21.3500  29.2300   4.6500 O     1   SOL  -0.8340
2042   HW1  22.1100  28.6800   4.8400 H     1   SOL   0.4170
2043   HW2  21.7100  30.1200   4.6100 H     1   SOL   0.4170
2044    OW  20.3500   9.2300  24.3900 O     1   SOL  -0.8340
2045   HW1  20.5600   9.0100  23.4800 H     1   SOL   0.4170
2046   HW2  20.4500   8.4100  24.8600 H     1   SOL   0.4170
2047    OW   2.3200   7.7700  21.2000 O     1   SOL  -0.8340
2048   HW1   1.7800   8.3600  20.6700 H     1   SOL   0.4170
2049   HW2   2.3300   6.9500  20.7200 H     1   SOL   0.4170
2050    OW  28.1300   4.2600  26.9800 O     1   SOL  -0.8340
2051   HW1  27.7200   4.0500  26.1400 H     1   SOL   0.4170
2052   HW2  28.8500   3.6400  27.0600 H     1   SOL   0.4170
2053    OW  19.5000   7.0000   8.8200 O     1   SOL  -0.8340
2054   HW1  20.1800   7.6700   8.8000 H     1   SOL   0.4170
2055   HW2  19.0200   7.1200   8.0000 H     1   SOL   0.4170
2056    OW  25.1300   3.1000  13.7100 O     1   SOL  -0.8340
2057   HW1  25.7400   3.3700  13.0200 H     1   SOL   0.4170
2058   HW2  24.6100   3.8800  13.8900 H     1   SOL   0.4170
2059    OW  15.0500  18.1500  10.0100 O     1   SOL  -0.8340
2060   HW1  14.1700  18.3300   9.6800 H     1   SOL   0.4170
2061   HW2  14.9200  17.5100  10.7000 H     1   SOL   0.4170
2062    OW   3.3300  26.0000  18.0100 O     1   SOL  -0.8340
2063   HW1   3.1900  26.8700  18.3700 H     1   SOL   0.4170
2064   HW2   2.4800  25.7600  17.6300 H     1   SOL   0.4170
2065    OW   4.6700   9.7000  16.4300 O     1   SOL  -0.8340
2066   HW1   4.9600  10.5300  16.8100 H     1   SOL   0.4170
2067   HW2   5.2200   9.5700  15.6700 H     1   SOL   0.4170
2068    OW  19.2800  11.1600  14.6500 O     1   SOL  -0.8340
2069   HW1  19.0300  11.3400  15.5500 H     1   SOL   0.4170
2070   HW2  18.4800  11.3200  14.1400 H     1   SOL   0.4170
2071    OW  28.3400   7.3200   1.8800 O     1   SOL  -0.8340
2072   HW1  27.5700   7.8500   1.6500 H     1   SOL   0.4170
2073   HW2  29.0700   7.9400   1.8400 H     1   SOL   0.4170
2074    OW   7.7800   4.1500  16.1600 O     1   SOL  -0.8340
2075   HW1   7.8600   4.6100  15.3200 H     1   SOL   0.4170
2076   HW2   7.1400   4.6600  16.6500 H     1   SOL   0.4170
2077    OW  14.8500  15.2500  17.3700 O     1   SOL  -0.8340
2078   HW1  15.0000  14.4000  16.9500 H     1   SOL   0.4170
2079   HW2  13.9200  15.4200  17.2300 H     1   SOL   0.4170
2080    OW  17.8000   0.8000  11.1100 O     1   SOL  -0.8340
2081   HW1  18.5700   1.2300  10.7400 H     1   SOL   0.4170
2082   HW2  17.9400   0.8300  12.0600 H     1   SOL   0.4170
2083    OW  16.5100   6.5600  16.1000 O     1   SOL  -0.8340
2084   HW1  15.7200   6.0900  16.3700 H     1   SOL   0.4170
2085   HW2  17.0200   6.6700  16.9000 H     1   SOL   0.4170
2086    OW   3.5700  26.7500   7.5000 O     1   SOL  -0.8340
2087   HW1   2.7700  26.3900   7.8800 H     1   SOL   0.4170
2088   HW2   4.1900  26.0200   7.5100 H     1   SOL   0.4170
2089    OW   2.4300   3.2100  14.3400 O     1   SOL  -0.8340
2090   HW1   2.1500   2.3200  14.1700 H     1   SOL   0.4170
2091   HW2   2.7000   3.5400  13.4900 H     1   SOL   0.4170
2092    OW  10.5000   3.1000   9.5000 O     1   SOL  -0.8340
2093   HW1  10.7700   2.1800   9.5800 H     1   SOL   0.4170
2094   HW2  11.1200   3.5800  10.0500 H     1   SOL   0.4170
2095    OW  23.3900  27.9200  23.4600 O     1   SOL  -0.8340
2096   HW1  23.0500  28.3900  24.2200 H     1   SOL   0.4170
2097   HW2  24.2600  28.3000  23.3300 H     1   SOL   0.4170
2098    OW  28.4400   9.1600   6.3800 O     1   SOL  -0.8340
2099   HW1  27.6900   9.1600   6.9800 H     1   SOL   0.4170
2100   HW2  28.9900   9.8800   6.7000 H     1   SOL   0.4170
2101    OW   3.6600  16.6500  15.5900 O     1   SOL  -0.8340
2102   HW1   4.3000  16.8900  14.9300 H     1   SOL   0.4170
2103   HW2   4.1600  16.5700  16.4000 H     1   SOL   0.4170
2104    OW  10.8400   7.3500  11.2400 O     1   SOL  -0.8340
2105   HW1  11.3200   7.5500  12.0400 H     1   SOL   0.4170
2106   HW2  11.0100   6.4200  11.0900 H     1   SOL   0.4170
2107    OW  28.9500  25.0900  27.2500 O     1   SOL  -0.8340
2108   HW1  28.3000  25.4200  27.8600 H     1   SOL   0.4170
2109   HW2  29.1200  24.2000  27.5300 H     1   SOL   0.4170
2110    OW  27.3300   9.9000  26.4300 O     1   SOL  -0.8340
2111   HW1  27.5400   9.8900  25.5000 H     1   SOL   0.4170
2112   HW2  28.0700   9.4500  26.8500 H     1   SOL   0.4170
2113    OW   9.0400  27.3300  20.7700 O     1   SOL  -0.8340
2114   HW1   8.1200  27.2900  20.4900 H     1   SOL   0.4170
2115   HW2   9.0700  28.0900  21.3600 H     1   SOL   0.4170
2116    OW  27.7600  23.4700  12.3800 O     1   SOL  -0.8340
2117   HW1  27.3900  23.7100  13.2300 H     1   SOL   0.4170
2118   HW2  27.8400  22.5200  12.4100 H     1   SOL   0.4170
2119    OW  21.0400   0.8300  25.9600 O     1   SOL  -0.8340
2120   HW1  21.6600   1.1000  25.2900 H     1   SOL   0.4170
2121   HW2  21.5800   0.4100  26.6300 H     1   SOL   0.4170
2122    OW   0.7900   2.5100  18.5800 O     1   SOL  -0.8340
2123   HW1   0.3200   1.9200  17.9900 H     1   SOL   0.4170
2124   HW2   1.3900   2.9900  18.0000 H     1   SOL   0.4170
2125    OW  27.7900  22.0200  26.5400 O     1   SOL  -0.8340
2126   HW1  28.6400  22.2700  26.8800 H     1   SOL   0.4170
2127   HW2  27.5300  22.7500  25.9700 H     1   SOL   0.4170
2128    OW  17.8700  19.1500  10.2800 O     1   SOL  -0.8340
2129   HW1  17.0300  19.0100   9.8500 H     1   SOL   0.4170
2130   HW2  17.7700  18.7300  11.1400 H     1   SOL   0.4170
2131    OW   7.5000  11.9800  26.5400 O     1   SOL  -0.8340
2132   HW1   7.9200  12.8200  26.3800 H     1   SOL   0.4170
2133   HW2   8.1200  11.5000  27.0800 H     1   SOL   0.4170
2134    OW  25.9000  29.3000  21.9900 O     1   SOL  -0.8340
2135   HW1  26.6800  28.7700  21.8400 H     1   SOL   0.4170
2136   HW2  26.0200  29.6600  22.8700 H     1   SOL   0.4170
2137    OW  12.6100  23.7800  26.7600 O     1   SOL  -0.8340
2138   HW1  12.0900  23.8100  25.9600 H     1   SOL   0.4170
2139   HW2  12.8200  24.7000  26.9400 H     1   SOL   0.4170
2140    OW  14.6700   8.8300  10.9300 O     1   SOL  -0.8340
2141   HW1  15.3400   9.4100  11.3000 H     1   SOL   0.4170
2142   HW2  15.1700   8.1400  10.5100 H     1   SOL   0.4170
2143    OW  29.3400   4.9400  29.5900 O     1   SOL  -0.8340
2144   HW1  28.8200   5.5900  30.0700 H     1   SOL   0.4170
2145   HW2  28.7400   4.6000  28.9200 H     1   SOL   0.4170
2146    OW   2.1800  22.6100  23.9300 O     1   SOL  -0.8340
2147   HW1   2.8400  22.5200  23.2500 H     1   SOL   0.4170
2148   HW2   2.1700  21.7600  24.3700 H     1   SOL   0.4170
2149    OW  15.2200   3.9000   7.1600 O     1   SOL  -0.8340
2150   HW1  15.9800   3.9200   6.5700 H     1   SOL   0.4170
2151   HW2  15.4000   3.1700   7.7500 H     1   SOL   0.4170
2152    OW  14.9600  15.7000  26.5200 O     1   SOL  -0.8340
2153   HW1  14.4200  15.3200  27.2100 H     1   SOL   0.4170
2154   HW2  15.8300  15.3500  26.6600 H     1   SOL   0.4170
2155    OW   5.7500  25.3600  17.0200 O     1   SOL  -0.8340
2156   HW1   5.0100  25.5300  17.6000 H     1   SOL   0.4170
2157   HW2   5.4900  24.5800  16.5300 H     1   SOL   0.4170
2158    OW   6.1100  18.2600  11.4800 O     1   SOL  -0.8340
2159   HW1   5.2900  18.6700  11.2300 H     1   SOL   0.4170
2160   HW2   6.2400  18.5200  12.3900 H     1   SOL   0.4170
2161    OW  29.3200  25.9600  24.1700 O     1   SOL  -0.8340
2162   HW1  28.5900  25.8100  24.7700 H     1   SOL   0.4170
2163   HW2  29.5500  25.0900  23.8500 H     1   SOL   0.4170
2164    OW  14.4500  18.8100  16.0300 O     1   SOL  -0.8340
2165   HW1  13.8500  19.5600  16.0000 H     1   SOL   0.4170
2166   HW2  14.8900  18.8300  15.1800 H     1   SOL   0.4170
2167    OW   4.2100   5.5500   7.7900 O     1   SOL  -0.8340
2168   HW1   4.8500   5.9800   7.2200 H     1   SOL   0.4170
2169   HW2   4.7000   4.8400   8.2100 H     1   SOL   0.4170
2170    OW   8.3800  27.5800  13.0500 O     1   SOL  -0.8340
2171   HW1   8.5600  27.8100  12.1400 H     1   SOL   0.4170
2172   HW2   7.7400  28.2300  13.3400 H     1   SOL   0.4170
2173    OW   8.4600  23.7100  27.4600 O     1   SOL  -0.8340
2174   HW1   7.6600  23.2300  27.2600 H     1   SOL   0.4170
2175   HW2   9.0100  23.0800  27.9300 H     1   SOL   0.4170
2176    OW   0.3200   5.0400  12.3900 O     1   SOL  -0.8340
2177   HW1   1.1200   5.4300  12.7400 H     1   SOL   0.4170
2178   HW2   0.4200   5.0900  11.4400 H     1   SOL   0.4170
2179    OW  24.6700   1.9800   4.8200 O     1   SOL  -0.8340
2180   HW1  25.1100   1.6100   5.5900 H     1   SOL   0.4170
2181   HW2  24.7400   2.9300   4.9400 H     1   SOL   0.4170
2182    OW  25.1100   9.1600  28.2200 O     1   SOL  -0.8340
2183   HW1  25.8200   8.9000  27.6300 H     1   SOL   0.4170
2184   HW2  25.3400   8.7700  29.0600 H     1   SOL   0.4170
2185    OW  28.2300  12.4700  21.8200 O     1   SOL  -0.8340
2186   HW1  28.4100  11.5400  21.7200 H     1   SOL   0.4170
2187   HW2  27.7400  12.7000  21.0300 H     1   SOL   0.4170
2188    OW  10.6500   8.8800   2.4700 O     1   SOL  -0.8340
2189   HW1  11.0800   9.7100   2.2500 H     1   SOL   0.4170
2190   HW2  11.1800   8.2100   2.0400 H     1   SOL   0.4170
2191    OW  20.8000   3.6200   2.4100 O     1   SOL  -0.8340
2192   HW1  21.7000   3.3500   2.6100 H     1   SOL   0.4170
2193   HW2  20.4700   2.9400   1.8200 H     1   SOL   0.4170
2194    OW   9.8100   4.0700   7.1100 O     1   SOL  -0.8340
2195   HW1  10.0100   5.0000   7.2300 H     1   SOL   0.4170
2196   HW2   9.9400   3.6800   7.9700 H     1   SOL   0.4170
2197    OW  22.1600  24.2900  18.7900 O     1   SOL  -0.8340
2198   HW1  22.0200  23.3900  19.0800 H     1   SOL   0.4170
2199   HW2  22.4200  24.7600  19.5800 H     1   SOL   0.4170
2200    OW   7.4400  24.3500   0.4500 O     1   SOL  -0.8340
2201   HW1   8.1700  24.6600   1.0000 H     1   SOL   0.4170
2202   HW2   7.8200  24.2500  -0.4200 H     1   SOL   0.4170
2203    OW  26.9300   3.8500   2.3000 O     1   SOL  -0.8340
2204   HW1  27.7400   3.6700   2.7800 H     1   SOL   0.4170
2205   HW2  26.3200   3.1800   2.6100 H     1   SOL   0.4170
2206    OW  15.2600  28.6200  13.6400 O     1   SOL  -0.8340
2207   HW1  16.0300  28.4800  14.1900 H     1   SOL   0.4170
2208   HW2  15.1400  29.5700  13.6400 H     1   SOL   0.4170
2209    OW   8.8400  13.2100   3.5100 O     1   SOL  -0.8340
2210   HW1   8.1800  12.6300   3.8900 H     1   SOL   0.4170
2211   HW2   8.4500  14.0800   3.5800 H     1   SOL   0.4170
2212    OW   5.5000   6.8800  18.1100 O     1   SOL  -0.8340
2213   HW1   5.0700   6.7800  17.2600 H     1   SOL   0.4170
2214   HW2   4.9600   6.3700  18.7200 H     1   SOL   0.4170
2215    OW   6.4200   8.2100  14.7200 O     1   SOL  -0.8340
2216   HW1   6.3000   8.5900  13.8500 H     1   SOL   0.4170
2217   HW2   7.2700   7.7700  14.6800 H     1   SOL   0.4170
2218    OW   3.5100  15.1600   5.5600 O     1   SOL  -0.8340
2219   HW1   3.2300  16.0700   5.6700 H     1   SOL   0.4170
2220   HW2   3.5800  14.8300   6.4600 H     1   SOL   0.4170
2221    OW  10.0600  15.3900  20.8000 O     1   SOL  -0.8340
2222   HW1   9.1300  15.1800  20.7200 H     1   SOL   0.4170
2223   HW2  10.3900  14.7800  21.4600 H     1   SOL   0.4170
2224    OW  25.3100  21.1400  12.5700 O     1   SOL  -0.8340
2225   HW1  26.2500  20.9900  12.5100 H     1   SOL   0.4170
2226   HW2  25.1300  21.1500  13.5100 H     1   SOL   0.4170
2227    OW  22.7300  14.5200  12.6900 O     1   SOL  -0.8340
2228   HW1  22.0000  14.9600  13.1400 H     1   SOL   0.4170
2229   HW2  23.1900  15.2300  12.2400 H     1   SOL   0.4170
2230    OW   5.7900  24.7800  26.5800 O     1   SOL  -0.8340
2231   HW1   5.0600  24.6100  27.1700 H     1   SOL   0.4170
2232   HW2   5.8600  25.7400  26.5600 H     1   SOL   0.4170
2233    OW  12.0900  19.5000   4.7900 O     1   SOL  -0.8340
2234   HW1  12.1400  19.8700   3.9100 H     1   SOL   0.4170
2235   HW2  13.0000  19.3900   5.0600 H     1   SOL   0.4170
2236    OW   7.0200  26.7200   8.3600 O     1   SOL  -0.8340
2237   HW1   6.8300  27.6400   8.1500 H     1   SOL   0.4170
2238   HW2   6.9400  26.2600   7.5200 H     1   SOL   0.4170
2239    OW  17.0700  14.9800  11.2500 O     1   SOL  -0.8340
2240   HW1  17.5400  14.3300  11.7700 H     1   SOL   0.4170
2241   HW2  17.3400  14.8000  10.3500 H     1   SOL   0.4170
2242    OW   9.9700   0.9900  13.4100 O     1   SOL  -0.8340
2243   HW1  10.6800   0.3500  13.4100 H     1   SOL   0.4170
2244   HW2   9.3400   0.6500  12.7800 H     1   SOL   0.4170
2245    OW  21.5800  27.2800  21.3900 O     1   SOL  -0.8340
2246   HW1  22.0300  27.5500  22.1900 H     1   SOL   0.4170
2247   HW2  20.7900  26.8300  21.7000 H     1   SOL   0.4170
2248    OW   9.3600  14.4500  14.8800 O     1   SOL  -0.8340
2249   HW1   9.4800  15.2100  15.4500 H     1   SOL   0.4170
2250   HW2   8.4200  14.3200  14.8500 H     1   SOL   0.4170
2251    OW  19.2300  27.5700  13.1600 O     1   SOL  -0.8340
2252   HW1  18.3200  27.3300  13.3500 H     1   SOL   0.4170
2253   HW2  19.5200  26.9200  12.5200 H     1   SOL   0.4170
2254    OW  24.1700  22.4900  20.2900 O     1   SOL  -0.8340
2255   HW1  24.3800  21.6600  20.7300 H     1   SOL   0.4170
2256   HW2  23.7900  23.0300  20.9800 H     1   SOL   0.4170
2257    OW  19.9400   8.2600  27.3000 O     1   SOL  -0.8340
2258   HW1  20.2900   8.6500  28.1000 H     1   SOL   0.4170
2259   HW2  19.1400   7.8200  27.5700 H     1   SOL   0.4170
2260    OW  18.8200  11.2500  24.9900 O     1   SOL  -0.8340
2261   HW1  18.3400  11.0000  25.7800 H     1   SOL   0.4170
2262   HW2  19.3700  10.4900  24.7900 H     1   SOL   0.4170
2263    OW  16.5900  24.3100  19.6400 O     1   SOL  -0.8340
2264   HW1  15.6400  24.2000  19.7200 H     1   SOL   0.4170
2265   HW2  16.9500  23.7900  20.3500 H     1   SOL   0.4170
2266    OW  29.1400  13.5300  16.2300 O     1   SOL  -0.8340
2267   HW1  29.0200  14.4700  16.3500 H     1   SOL   0.4170
2268   HW2  29.9900  13.4500  15.8000 H     1   SOL   0.4170
2269    OW  24.9500  21.5200  25.8200 O     1   SOL  -0.8340
2270   HW1  25.8000  21.2500  26.1800 H     1   SOL   0.4170
2271   HW2  25.0300  22.4700  25.7300 H     1   SOL   0.4170
2272    OW  22.5400  24.3100  23.7300 O     1   SOL  -0.8340
2273   HW1  21.6300  24.2900  24.0300 H     1   SOL   0.4170
2274   HW2  23.0600  24.4100  24.5200 H     1   SOL   0.4170
2275    OW  18.4300  22.5000  28.9700 O     1   SOL  -0.8340
2276   HW1  17.5300  22.1800  29.0700 H     1   SOL   0.4170
2277   HW2  18.5700  22.5000  28.0200 H     1   SOL   0.4170
2278    OW  21.0900  25.3600   7.0700 O     1   SOL  -0.8340
2279   HW1  20.8200  25.4300   6.1600 H     1   SOL   0.4170
2280   HW2  21.5000  24.5000   7.1400 H     1   SOL   0.4170
2281    OW  17.1100  27.3700  15.3900 O     1   SOL  -0.8340
2282   HW1  17.6500  27.5300  16.1600 H     1   SOL   0.4170
2283   HW2  17.3500  26.4800  15.1100 H     1   SOL   0.4170
2284    OW  12.2800   5.2000  17.2100 O     1   SOL  -0.8340
2285   HW1  12.3100   5.7900  17.9600 H     1   SOL   0.4170
2286   HW2  11.6200   4.5500  17.4400 H     1   SOL   0.4170
2287    OW  27.5200  23.7200   3.2600 O     1   SOL  -0.8340
2288   HW1  27.1900  23.8600   4.1500 H     1   SOL   0.4170
2289   HW2  28.2800  24.3000   3.2000 H     1   SOL   0.4170
2290    OW  15.0500  22.8100  28.0000 O     1   SOL  -0.8340
2291   HW1  15.1300  22.1300  27.3400 H     1   SOL   0.4170
2292   HW2  14.3700  23.3900  27.6700 H     1   SOL   0.4170
2293    OW   4.2000  11.4900  12.6000 O     1   SOL  -0.8340
2294   HW1   3.9700  12.4100  12.4600 H     1   SOL   0.4170
2295   HW2   3.5400  11.1700  13.2200 H     1   SOL   0.4170
2296    OW  22.7200   6.3700   1.9600 O     1   SOL  -0.8340
2297   HW1  22.2100   5.5900   1.7600 H     1   SOL   0.4170
2298   HW2  23.5700   6.2200   1.5400 H     1   SOL   0.4170
2299    OW  10.7300  27.4400   8.8500 O     1   SOL  -0.8340
2300   HW1  10.4900  27.2500   7.9400 H     1   SOL   0.4170
2301   HW2  11.3800  26.7700   9.0700 H     1   SOL   0.4170
2302    OW   8.0000  23.2300   7.3400 O     1   SOL  -0.8340
2303   HW1   8.7800  23.7700   7.2000 H     1   SOL   0.4170
2304   HW2   8.2200  22.3900   6.9300 H     1   SOL   0.4170
2305    OW  12.3200  11.3600   7.4600 O     1   SOL  -0.8340
2306   HW1  12.4200  10.8100   6.6800 H     1   SOL   0.4170
2307   HW2  11.9900  10.7600   8.1300 H     1   SOL   0.4170
2308    OW   3.0300  20.4600  19.8900 O     1   SOL  -0.8340
2309   HW1   2.4800  20.5900  19.1200 H     1   SOL   0.4170
2310   HW2   2.4500  20.0200  20.5200 H     1   SOL   0.4170
2311    OW  25.2500  13.3100  16.5200 O     1   SOL  -0.8340
2312   HW1  25.0900  14.1500  16.1000 H     1   SOL   0.4170
2313   HW2  25.3200  12.6900  15.7900 H     1   SOL   0.4170
2314    OW  10.0300  12.2600  19.5600 O     1   SOL  -0.8340
2315   HW1   9.2900  12.1200  20.1500 H     1   SOL   0.4170
2316   HW2  10.2700  11.3800  19.2600 H     1   SOL   0.4170
2317    OW   0.6400  14.1700  11.4700 O     1   SOL  -0.8340
2318   HW1   0.2500  14.4000  10.6300 H     1   SOL   0.4170
2319   HW2   0.2300  14.7700  12.1000 H     1   SOL   0.4170
2320    OW  20.9500   0.3800  12.8900 O     1   SOL  -0.8340
2321   HW1  20.6300  -0.5000  12.6900 H     1   SOL   0.4170
2322   HW2  20.5800   0.5800  13.7500 H     1   SOL   0.4170
2323    OW  18.3900  16.5600  14.8700 O     1   SOL  -0.8340
2324   HW1  18.8700  16.7400  15.6800 H     1   SOL   0.4170
2325   HW2  18.4800  15.6200  14.7400 H     1   SOL   0.4170
2326    OW  13.8500  27.0800  23.1400 O     1   SOL  -0.8340
2327   HW1  13.6900  26.3700  22.5200 H     1   SOL   0.4170
2328   HW2  14.1700  26.6400  23.9300 H     1   SOL   0.4170
2329    OW   2.2200   1.3100   7.6400 O     1   SOL  -0.8340
2330   HW1   1.3800   1.7400   7.7900 H     1   SOL   0.4170
2331   HW2   2.0200   0.6200   7.0000 H     1   SOL   0.4170
2332    OW   9.3200  14.2500  26.3800 O     1   SOL  -0.8340
2333   HW1  10.0400  13.6200  26.3500 H     1   SOL   0.4170
2334   HW2   9.6200  14.9800  25.8400 H     1   SOL   0.4170
2335    OW   0.4000  22.7400   7.9700 O     1   SOL  -0.8340
2336   HW1   0.6300  23.4900   7.4300 H     1   SOL   0.4170
2337   HW2  -0.5500  22.8000   8.0800 H     1   SOL   0.4170
2338    OW   9.7800  19.8700  14.8700 O     1   SOL  -0.8340
2339   HW1  10.1400  19.9900  15.7500 H     1   SOL   0.4170
2340   HW2   8.8400  19.7600  15.0100 H     1   SOL   0.4170
2341    OW  23.2400   9.7200  17.9500 O     1   SOL  -0.8340
2342   HW1  24.0100  10.2200  18.2200 H     1   SOL   0.4170
2343   HW2  22.6500  10.3700  17.5700 H     1   SOL   0.4170
2344    OW   6.3400   0.5600  29.1200 O     1   SOL  -0.8340
2345   HW1   6.4400   1.4500  29.4600 H     1   SOL   0.4170
2346   HW2   7.0600   0.0700  29.5000 H     1   SOL   0.4170
2347    OW  21.4500  23.1200  11.9600 O     1   SOL  -0.8340
2348   HW1  21.4700  23.7300  11.2200 H     1   SOL   0.4170
2349   HW2  22.3100  22.7000  11.9500 H     1   SOL   0.4170
2350    OW  17.9200  27.0900  24.1200 O     1   SOL  -0.8340
2351   HW1  17.3100  27.2100  23.3900 H     1   SOL   0.4170
2352   HW2  18.0000  27.9600  24.5100 H     1   SOL   0.4170
2353    OW  11.6400  26.5900  20.2600 O     1   SOL  -0.8340
2354   HW1  11.9900  26.4500  21.1400 H     1   SOL   0.4170
2355   HW2  10.8400  27.0900  20.4000 H     1   SOL   0.4170
2356    OW  14.1800   8.8000  20.0700 O     1   SOL  -0.8340
2357   HW1  14.8400   8.1900  20.3900 H     1   SOL   0.4170
2358   HW2  13.9100   9.3000  20.8400 H     1   SOL   0.4170
2359    OW  18.1100  18.9200   1.2700 O     1   SOL  -0.8340
2360   HW1  18.6100  19.2000   2.0300 H     1   SOL   0.4170
2361   HW2  17.5600  19.6600   1.0500 H     1   SOL   0.4170
2362    OW  20.0000  23.3700   4.6100 O     1   SOL  -0.8340
2363   HW1  20.6600  22.8100   5.0100 H     1   SOL   0.4170
2364   HW2  19.2600  23.3300   5.2000 H     1   SOL   0.4170
2365    OW  13.6900   0.3300  11.6900 O     1   SOL  -0.8340
2366   HW1  14.2600   0.9700  12.1100 H     1   SOL   0.4170
2367   HW2  13.2000  -0.0800  12.4000 H     1   SOL   0.4170
2368    OW  10.1700  10.9600  10.2400 O     1   SOL  -0.8340
2369   HW1  10.3200  10.6600  11.1300 H     1   SOL   0.4170
2370   HW2  10.9500  11.4800  10.0300 H     1   SOL   0.4170
2371    OW   3.6800  25.6200  14.2000 O     1   SOL  -0.8340
2372   HW1   4.1500  25.9700  14.9700 H     1   SOL   0.4170
2373   HW2   4.3100  25.7000  13.4800 H     1   SOL   0.4170
2374    OW   8.1900  14.7500  23.3100 O     1   SOL  -0.8340
2375   HW1   9.0800  14.4100  23.2400 H     1   SOL   0.4170
2376   HW2   7.6400  13.9700  23.3000 H     1   SOL   0.4170
2377    OW   1.8600  11.2100  22.4400 O     1   SOL  -0.8340
2378   HW1   2.1000  10.4200  22.9200 H     1   SOL   0.4170
2379   HW2   1.9400  10.9700  21.5100 H     1   SOL   0.4170
2380    OW  26.3300  25.2300  21.9600 O     1   SOL  -0.8340
2381   HW1  25.3900  25.2800  21.7700 H     1   SOL   0.4170
2382   HW2  26.6400  24.4800  21.4500 H     1   SOL   0.4170
2383    OW   0.1700  14.7700   6.0000 O     1   SOL  -0.8340
2384   HW1   0.3400  15.3300   5.2400 H     1   SOL   0.4170
2385   HW2   0.8700  14.9800   6.6200 H     1   SOL   0.4170
2386    OW   6.3100   9.6100   5.7300 O     1   SOL  -0.8340
2387   HW1   6.5000   9.7400   6.6600 H     1   SOL   0.4170
2388   HW2   7.1600   9.5800   5.3000 H     1   SOL   0.4170
2389    OW  24.3500  16.4500  11.0800 O     1   SOL  -0.8340
2390   HW1  23.9400  17.3100  11.2200 H     1   SOL   0.4170
2391   HW2  25.2000  16.6600  10.7000 H     1   SOL   0.4170
2392    OW  20.8600   8.8500  21.8100 O     1   SOL  -0.8340
2393   HW1  20.0100   8.7400  21.3700 H     1   SOL   0.4170
2394   HW2  21.5100   8.6000  21.1500 H     1   SOL   0.4170
2395    OW   4.0100  22.0400  22.0200 O     1   SOL  -0.8340
2396   HW1   4.2500  22.8200  21.5100 H     1   SOL   0.4170
2397   HW2   3.7200  21.4100  21.3700 H     1   SOL   0.4170
2398    OW   5.6900   8.9900   2.9500 O     1   SOL  -0.8340
2399   HW1   5.7600   9.6600   2.2800 H     1   SOL   0.4170
2400   HW2   6.0300   9.4100   3.7400 H     1   SOL   0.4170
2401    OW  14.2400  26.0900   5.8000 O     1   SOL  -0.8340
2402   HW1  14.9500  25.5000   6.0700 H     1   SOL   0.4170
2403   HW2  14.6400  26.9500   5.7800 H     1   SOL   0.4170
2404    OW   4.1400   3.0600  22.1400 O     1   SOL  -0.8340
2405   HW1   4.8300   3.0000  22.8000 H     1   SOL   0.4170
2406   HW2   4.1200   2.1900  21.7400 H     1   SOL   0.4170
2407    OW  23.8900  22.2500  10.5800 O     1   SOL  -0.8340
2408   HW1  24.5200  21.9300  11.2300 H     1   SOL   0.4170
2409   HW2  23.9600  23.2000  10.6300 H     1   SOL   0.4170
2410    OW  27.5100   7.9000  13.5400 O     1   SOL  -0.8340
2411   HW1  27.9600   8.1900  14.3300 H     1   SOL   0.4170
2412   HW2  28.2000   7.5000  13.0100 H     1   SOL   0.4170
2413    OW  25.7300  14.3100   8.1800 O     1   SOL  -0.8340
2414   HW1  24.9800  14.9000   8.0700 H     1   SOL   0.4170
2415   HW2  25.3700  13.4400   8.0400 H     1   SOL   0.4170
2416    OW   6.4600  15.1600   6.1900 O     1   SOL  -0.8340
2417   HW1   6.5300  14.2400   5.9700 H     1   SOL   0.4170
2418   HW2   5.5400  15.3800   6.0400 H     1   SOL   0.4170
2419    OW  15.1600  25.7400  25.0300 O     1   SOL  -0.8340
2420   HW1  16.0300  25.9800  24.7100 H     1   SOL   0.4170
2421   HW2  15.2600  24.8200  25.3100 H     1   SOL   0.4170
2422    OW  18.5200  22.3600  13.4000 O     1   SOL  -0.8340
2423   HW1  19.1900  22.6100  12.7500 H     1   SOL   0.4170
2424   HW2  18.5600  21.4100  13.4300 H     1   SOL   0.4170
2425    OW  28.8600  12.7900   7.7500 O     1   SOL  -0.8340
2426   HW1  28.4500  13.3300   8.4200 H     1   SOL   0.4170
2427   HW2  29.2100  13.4200   7.1200 H     1   SOL   0.4170
2428    OW  24.1200  25.3700  13.6700 O     1   SOL  -0.8340
2429   HW1  24.2600  26.2700  13.9700 H     1   SOL   0.4170
2430   HW2  24.9600  24.9400  13.8000 H     1   SOL   0.4170
2431    OW   6.8800  20.0900  25.1200 O     1   SOL  -0.8340
2432   HW1   6.2800  19.9800  25.8600 H     1   SOL   0.4170
2433   HW2   6.5500  20.8700  24.6600 H     1   SOL   0.4170
2434    OW  20.1100  17.6900  16.7800 O     1   SOL  -0.8340
2435   HW1  19.8800  18.5800  16.5100 H     1   SOL   0.4170
2436   HW2  20.1900  17.7500  17.7300 H     1   SOL   0.4170
2437    OW   0.0500   4.1400  20.7500 O     1   SOL  -0.8340
2438   HW1   0.0900   3.5400  20.0100 H     1   SOL   0.4170
2439   HW2  -0.3700   4.9200  20.4100 H     1   SOL   0.4170
2440    OW   4.9200  12.5600  27.5800 O     1   SOL  -0.8340
2441   HW1   5.4700  13.0700  28.1800 H     1   SOL   0.4170
2442   HW2   5.5500  12.0800  27.0500 H     1   SOL   0.4170
2443    OW   3.9700  25.0200   2.3800 O     1   SOL  -0.8340
2444   HW1   4.5400  24.9400   3.1400 H     1   SOL   0.4170
2445   HW2   4.3800  25.6800   1.8300 H     1   SOL   0.4170
2446    OW  23.6800  14.3200  23.7200 O     1   SOL  -0.8340
2447   HW1  23.2100  13.6300  24.1900 H     1   SOL   0.4170
2448   HW2  23.7000  15.0600  24.3300 H     1   SOL   0.4170
2449    OW   5.4900  19.1700   5.8300 O     1   SOL  -0.8340
2450   HW1   5.9100  19.6300   5.1100 H     1   SOL   0.4170
2451   HW2   4.6400  18.9100   5.4900 H     1   SOL   0.4170
2452    OW  28.5000   4.0400  23.3500 O     1   SOL  -0.8340
2453   HW1  28.6500   3.9700  22.4000 H     1   SOL   0.4170
2454   HW2  29.3100   3.7300  23.7500 H     1   SOL   0.4170
2455    OW  22.0700  16.8100  20.5300 O     1   SOL  -0.8340
2456   HW1  22.2500  15.8700  20.6200 H     1   SOL   0.4170
2457   HW2  21.2500  16.8500  20.0500 H     1   SOL   0.4170
2458    OW   4.8600  21.9400   4.1200 O     1   SOL  -0.8340
2459   HW1   5.0300  22.8800   4.1900 H     1   SOL   0.4170
2460   HW2   4.2100  21.7600   4.8000 H     1   SOL   0.4170
2461    OW  12.8400  21.3000  29.4400 O     1   SOL  -0.8340
2462   HW1  12.8300  22.2500  29.5700 H     1   SOL   0.4170
2463   HW2  13.2400  21.1900  28.5800 H     1   SOL   0.4170
2464    OW  15.3700  23.3300  12.1700 O     1   SOL  -0.8340
2465   HW1  15.1900  22.4400  11.8700 H     1   SOL   0.4170
2466   HW2  14.8100  23.4400  12.9300 H     1   SOL   0.4170
2467    OW   0.8100  20.1100   3.8700 O     1   SOL  -0.8340
2468   HW1   1.2800  19.5500   4.4900 H     1   SOL   0.4170
2469   HW2   1.1900  19.8900   3.0200 H     1   SOL   0.4170
2470    OW   2.0300  19.0700   1.6800 O     1   SOL  -0.8340
2471   HW1   2.0600  19.7100   0.9700 H     1   SOL   0.4170
2472   HW2   1.7200  18.2700   1.2700 H     1   SOL   0.4170
2473    OW  26.0200   8.5900   1.1900 O     1   SOL  -0.8340
2474   HW1  25.5500   9.0800   1.8700 H     1   SOL   0.4170
2475   HW2  25.7100   7.6900   1.2800 H     1   SOL   0.4170
2476    OW  18.6300  11.2100  17.3000 O     1   SOL  -0.8340
2477   HW1  19.1100  11.3900  18.1100 H     1   SOL   0.4170
2478   HW2  17.8500  10.7300  17.5900 H     1   SOL   0.4170
2479    OW  14.8600  29.5800  21.9800 O     1   SOL  -0.8340
2480   HW1  14.6700  30.0800  22.7700 H     1   SOL   0.4170
2481   HW2  14.6400  28.6700  22.2000 H     1   SOL   0.4170
2482    OW  25.5200   9.8000  21.5800 O     1   SOL  -0.8340
2483   HW1  25.3700  10.7300  21.4200 H     1   SOL   0.4170
2484   HW2  26.4600   9.7300  21.7200 H     1   SOL   0.4170
2485    OW  20.6500   2.5100  10.9800 O     1   SOL  -0.8340
2486   HW1  20.3600   2.1800  10.1300 H     1   SOL   0.4170
2487   HW2  20.7300   1.7300  11.5300 H     1   SOL   0.4170
2488    OW   9.0700  19.6400  22.7200 O     1   SOL  -0.8340
2489   HW1   9.8400  19.2000  23.0600 H     1   SOL   0.4170
2490   HW2   8.3800  18.9700  22.7300 H     1   SOL   0.4170
2491    OW   2.4100  23.1600  13.7400 O     1   SOL  -0.8340
2492   HW1   2.6800  23.9900  14.1300 H     1   SOL   0.4170
2493   HW2   1.7300  23.4000  13.1100 H     1   SOL   0.4170
2494    OW  15.2900   6.4400  25.5500 O     1   SOL  -0.8340
2495   HW1  14.4700   6.2300  25.1000 H     1   SOL   0.4170
2496   HW2  15.3500   5.7900  26.2500 H     1   SOL   0.4170
2497    OW  14.5400  14.8400  28.8900 O     1   SOL  -0.8340
2498   HW1  15.3100  14.9100  29.4600 H     1   SOL   0.4170
2499   HW2  13.8500  14.5000  29.4600 H     1   SOL   0.4170
2500    OW  24.3300   1.1500  15.7100 O     1   SOL  -0.8340
2501   HW1  24.7100   1.7400  15.0600 H     1   SOL   0.4170
2502   HW2  24.9400   1.1800  16.4400 H     1   SOL   0.4170
2503    OW  11.3100  12.3900  25.9200 O     1   SOL  -0.8340
2504   HW1  12.2300  12.6000  25.7900 H     1   SOL   0.4170
2505   HW2  11.3100  11.7800  26.6600 H     1   SOL   0.4170
2506    OW   0.1100   2.3200   0.7200 O     1   SOL  -0.8340
2507   HW1  -0.0400   3.2300   0.4500 H     1   SOL   0.4170
2508   HW2   0.9200   2.0700   0.2700 H     1   SOL   0.4170
2509    OW   0.2100  25.6200   5.2600 O     1   SOL  -0.8340
2510   HW1   0.9900  25.1700   5.5900 H     1   SOL   0.4170
2511   HW2   0.2600  25.5200   4.3100 H     1   SOL   0.4170
2512    OW   7.8900   2.3200   9.6700 O     1   SOL  -0.8340
2513   HW1   8.5600   2.8500  10.1200 H     1   SOL   0.4170
2514   HW2   8.3900   1.8000   9.0400 H     1   SOL   0.4170
2515    OW  26.3600  19.0800  27.2100 O     1   SOL  -0.8340
2516   HW1  26.5600  18.8900  26.2900 H     1   SOL   0.4170
2517   HW2  25.9300  18.2800  27.5300 H     1   SOL   0.4170
2518    OW  22.1300  18.3700  13.4300 O     1   SOL  -0.8340
2519   HW1  22.6400  18.3300  14.2400 H     1   SOL   0.4170
2520   HW2  21.4700  19.0500  13.6000 H     1   SOL   0.4170
2521    OW  12.1700  17.1300  14.4200 O     1   SOL  -0.8340
2522   HW1  11.4100  16.8900  14.9500 H     1   SOL   0.4170
2523   HW2  12.6800  17.7200  14.9800 H     1   SOL   0.4170
2524    OW  23.7700  29.5300  26.9400 O     1   SOL  -0.8340
2525   HW1  23.2700  29.0300  27.5800 H     1   SOL   0.4170
2526   HW2  24.3700  30.0600  27.4600 H     1   SOL   0.4170
2527    OW  16.6200  28.0400  11.4600 O     1   SOL  -0.8340
2528   HW1  15.9500  28.0700  12.1400 H     1   SOL   0.4170
2529   HW2  16.7000  28.9500  11.1700 H     1   SOL   0.4170
2530    OW   6.0400   6.6400   5.9500 O     1   SOL  -0.8340
2531   HW1   6.8300   6.3100   5.5200 H     1   SOL   0.4170
2532   HW2   6.0100   7.5600   5.7100 H     1   SOL   0.4170
2533    OW   9.9500  16.7000  16.1600 O     1   SOL  -0.8340
2534   HW1  10.5300  16.6300  16.9200 H     1   SOL   0.4170
2535   HW2   9.2000  17.2100  16.4800 H     1   SOL   0.4170
2536    OW   1.0000  25.2300  29.6400 O     1   SOL  -0.8340
2537   HW1   1.2000  26.1600  29.7500 H     1   SOL   0.4170
2538   HW2   0.0600  25.2200  29.4200 H     1   SOL   0.4170
2539    OW  11.8100   7.1700  19.3000 O     1   SOL  -0.8340
2540   HW1  11.0800   7.7300  19.0200 H     1   SOL   0.4170
2541   HW2  12.5000   7.7800  19.5400 H     1   SOL   0.4170
2542    OW  20.6200   2.3700  18.8000 O     1   SOL  -0.8340
2543   HW1  19.6800   2.3900  18.6000 H     1   SOL   0.4170
2544   HW2  20.9600   1.6500  18.2700 H     1   SOL   0.4170
2545    OW  26.0300   0.1000   9.7600 O     1   SOL  -0.8340
2546   HW1  25.3100  -0.5000   9.9600 H     1   SOL   0.4170
2547   HW2  25.6000   0.9600   9.6600 H     1   SOL   0.4170
2548    OW  11.7300   0.5700   9.7100 O     1   SOL  -0.8340
2549   HW1  11.6800  -0.2500   9.2200 H     1   SOL   0.4170
2550   HW2  12.2000   0.3400  10.5100 H     1   SOL   0.4170
2551    OW  10.9100  14.0800  23.6000 O     1   SOL  -0.8340
2552   HW1  10.7700  13.4600  24.3100 H     1   SOL   0.4170
2553   HW2  11.7900  14.4300  23.7600 H     1   SOL   0.4170
2554    OW  23.4000  15.7600   8.3800 O     1   SOL  -0.8340
2555   HW1  23.4900  16.3300   9.1500 H     1   SOL   0.4170
2556   HW2  23.1100  16.3500   7.6800 H     1   SOL   0.4170
2557    OW  26.6300  24.0600  24.9000 O     1   SOL  -0.8340
2558   HW1  26.1600  24.7700  25.3400 H     1   SOL   0.4170
2559   HW2  26.3800  24.1400  23.9800 H     1   SOL   0.4170
2560    OW  19.4800  20.9600   9.1400 O     1   SOL  -0.8340
2561   HW1  18.9100  20.2500   9.4300 H     1   SOL   0.4170
2562   HW2  18.9500  21.7500   9.2800 H     1   SOL   0.4170
2563    OW  20.5000  21.4500  22.2800 O     1   SOL  -0.8340
2564   HW1  19.9800  20.7100  22.5700 H     1   SOL   0.4170
2565   HW2  21.4000  21.2200  22.5100 H     1   SOL   0.4170
2566    OW  15.5800  26.9500  18.8700 O     1   SOL  -0.8340
2567   HW1  14.6700  27.0100  18.5800 H     1   SOL   0.4170
2568   HW2  15.7000  26.0300  19.0800 H     1   SOL   0.4170
2569    OW  13.8900  12.9600  25.1400 O     1   SOL  -0.8340
2570   HW1  13.6200  13.7800  24.7100 H     1   SOL   0.4170
2571   HW2  14.7800  13.1400  25.4500 H     1   SOL   0.4170
2572    OW  22.2400  25.6400  27.1100 O     1   SOL  -0.8340
2573   HW1  21.4400  25.7100  26.5800 H     1   SOL   0.4170
2574   HW2  22.2300  26.4400  27.6500 H     1   SOL   0.4170
2575    OW  19.7900   7.5700   2.0500 O     1   SOL  -0.8340
2576   HW1  20.1500   6.8000   1.6100 H     1   SOL   0.4170
2577   HW2  20.3900   7.7200   2.7900 H     1   SOL   0.4170
2578    OW  17.5200  17.0600  28.0700 O     1   SOL  -0.8340
2579   HW1  18.1600  17.5400  28.6000 H     1   SOL   0.4170
2580   HW2  16.7800  17.6600  27.9800 H     1   SOL   0.4170
2581    OW  21.9800  27.6400   8.4200 O     1   SOL  -0.8340
2582   HW1  21.5800  26.9400   7.9000 H     1   SOL   0.4170
2583   HW2  21.2400  28.0500   8.8700 H     1   SOL   0.4170
2584    OW  19.8000  28.1700   9.9200 O     1   SOL  -0.8340
2585   HW1  19.1000  28.3700  10.5300 H     1   SOL   0.4170
2586   HW2  19.3900  27.6400   9.2400 H     1   SOL   0.4170
2587    OW  14.3500  11.9000  14.5200 O     1   SOL  -0.8340
2588   HW1  14.1400  12.1600  15.4100 H     1   SOL   0.4170
2589   HW2  13.9400  12.5700  13.9700 H     1   SOL   0.4170
2590    OW  23.0200  27.7400  16.9700 O     1   SOL  -0.8340
2591   HW1  23.0100  28.0800  17.8600 H     1   SOL   0.4170
2592   HW2  22.1000  27.5700  16.7700 H     1   SOL   0.4170
2593    OW  24.3700   8.8500  23.8000 O     1   SOL  -0.8340
2594   HW1  24.1100   9.6200  24.3200 H     1   SOL   0.4170
2595   HW2  24.7300   9.2200  23.0000 H     1   SOL   0.4170
2596    OW   0.1100  28.1300   7.7700 O     1   SOL  -0.8340
2597   HW1  -0.3500  28.9300   8.0100 H     1   SOL   0.4170
2598   HW2   0.2300  28.1900   6.8200 H     1   SOL   0.4170
2599    OW   1.4500  29.0200  10.1000 O     1   SOL  -0.8340
2600   HW1   1.0600  28.6800   9.3000 H     1   SOL   0.4170
2601   HW2   2.2900  28.5700  10.1800 H     1   SOL   0.4170
2602    OW  23.7100   8.6600   3.3300 O     1   SOL  -0.8340
2603   HW1  23.0500   7.9800   3.2000 H     1   SOL   0.4170
2604   HW2  24.4100   8.2300   3.8200 H     1   SOL   0.4170
2605    OW  13.7700  24.4800  18.8500 O     1   SOL  -0.8340
2606   HW1  12.9700  24.9000  18.5400 H     1   SOL   0.4170
2607   HW2  13.7100  23.5800  18.5100 H     1   SOL   0.4170
2608    OW   5.5600   9.8300  23.1400 O     1   SOL  -0.8340
2609   HW1   4.7700  10.1200  23.6000 H     1   SOL   0.4170
2610   HW2   5.2400   9.5200  22.2900 H     1   SOL   0.4170
2611    OW   7.9700   6.3800   1.2600 O     1   SOL  -0.8340
2612   HW1   8.2900   5.4800   1.3100 H     1   SOL   0.4170
2613   HW2   8.6600   6.8600   0.7900 H     1   SOL   0.4170
2614    OW  23.2400   0.7000  11.5800 O     1   SOL  -0.8340
2615   HW1  23.2800   1.6000  11.2500 H     1   SOL   0.4170
2616   HW2  22.4900   0.7000  12.1700 H     1   SOL   0.4170
2617    OW  23.1900  20.9300  17.6700 O     1   SOL  -0.8340
2618   HW1  22.4600  20.8500  18.2900 H     1   SOL   0.4170
2619   HW2  23.9200  21.2500  18.2000 H     1   SOL   0.4170
2620    OW  20.3400  28.7000  18.9500 O     1   SOL  -0.8340
2621   HW1  20.2000  28.8000  19.8900 H     1   SOL   0.4170
2622   HW2  19.6200  28.1400  18.6600 H     1   SOL   0.4170
2623    OW  24.5300  17.0600  18.1800 O     1   SOL  -0.8340
2624   HW1  24.4900  17.3800  19.0800 H     1   SOL   0.4170
2625   HW2  24.0800  16.2100  18.2100 H     1   SOL   0.4170
2626    OW   8.3400  15.5100  28.6000 O     1   SOL  -0.8340
2627   HW1   8.5600  14.9100  27.8800 H     1   SOL   0.4170
2628   HW2   7.8000  14.9800  29.1800 H     1   SOL   0.4170
2629    OW   6.6500  11.7900  14.3400 O     1   SOL  -0.8340
2630   HW1   6.9000  11.9000  13.4200 H     1   SOL   0.4170
2631   HW2   5.8400  12.2900  14.4300 H     1   SOL   0.4170
2632    OW  28.7400   3.4500  14.5200 O     1   SOL  -0.8340
2633   HW1  29.0200   4.0700  13.8600 H     1   SOL   0.4170
2634   HW2  29.2900   2.6800  14.3900 H     1   SOL   0.4170
2635    OW   5.1900  15.9300  18.0300 O     1   SOL  -0.8340
2636   HW1   5.0100  16.6300  18.6600 H     1   SOL   0.4170
2637   HW2   4.8600  15.1400  18.4500 H     1   SOL   0.4170
2638    OW  18.8500  27.4200  27.4800 O     1   SOL  -0.8340
2639   HW1  19.3600  27.0900  26.7400 H     1   SOL   0.4170
2640   HW2  18.2200  26.7200  27.6600 H     1   SOL   0.4170
2641    OW   0.3400   6.7000  26.9400 O     1   SOL  -0.8340
2642   HW1   0.9900   6.3400  26.3400 H     1   SOL   0.4170
2643   HW2   0.3400   6.1000  27.6800 H     1   SOL   0.4170
2644    OW   1.4500  27.7400   0.7500 O     1   SOL  -0.8340
2645   HW1   2.2700  27.9600   0.3200 H     1   SOL   0.4170
2646   HW2   1.3200  28.4300   1.4000 H     1   SOL   0.4170
2647    OW  23.6100  14.6100  18.4800 O     1   SOL  -0.8340
2648   HW1  23.3800  14.3000  19.3600 H     1   SOL   0.4170
2649   HW2  23.3400  13.9000  17.9000 H     1   SOL   0.4170
2650    OW  21.0900  17.2600   5.0900 O     1   SOL  -0.8340
2651   HW1  20.7900  16.5100   5.6200 H     1   SOL   0.4170
2652   HW2  21.9400  17.4900   5.4700 H     1   SOL   0.4170
@<TRIPOS>BOND
    1     1     2     1
    2     1     3     1
    3     4     5     1
    4     4     6     1
    5     7     8     1
    6     7     9     1
    7    10    11     1
    8    10    12     1
    9    13    14     1
   10    13    15     1
   11    16    17     1
   12    16    18     1
   13    19    20     1
   14    19    21     1
   15    22    23     1
   16    22    24     1
   17    25    26     1
   18    25    27     1
   19    28    29     1
   20    28    30     1
   21    31    32     1
   22    31    33     1
   23    34    35     1
   24    34    36     1
   25    37    38     1
   26    37    39     1
   27    40    41     1
   28    40    42     1
   29    43    44     1
   30    43    45     1
   31    46    47     1
   32    46    48     1
   33    49    50     1
   34    49    51     1
   35    52    53     1
   36    52    54     1
   37    55    56     1
   38    55    57     1
   39    58    59     1
   40    58    60     1
   41    61    62     1
   42    61    63     1
   43    64    65     1
   44    64    66     1
   45    67    68     1
   46    67    69     1
   47    70    71     1
   48    70    72     1
   49    73    74     1
   50    73    75     1
   51    76    77     1
   52    76    78     1
   53    79    80     1
   54    79    81     1
   55    82    83     1
   56    82    84     1
   57    85    86     1
   58    85    87     1
   59    88    89     1
   60    88    90     1
   61    91    92     1
   62    91    93     1
   63    94    95     1
   64    94    96     1
   65    97    98     1
   66    97    99     1
   67   100   101     1
   68   100   102     1
   69   103   104     1
   70   103   105     1
   71   106   107     1
   72   106   108     1
   73   109   110     1
   74   109   111     1
   75   112   113     1
   76   112   114     1
   77   115   116     1
   78   115   117     1
   79   118   119     1
   80   118   120     1
   81   121   122     1
   82   121   123     1
   83   124   125     1
   84   124   126     1
   85   127   128     1
   86   127   129     1
   87   130   131     1
   88   130   132     1
   89   133   134     1
   90   133   135     1
   91   136   137     1
   92   136   138     1
   93   139   140     1
   94   139   141     1
   95   142   143     1
   96   142   144     1
   97   145   146     1
   98   145   147     1
   99   148   149     1
  100   148   150     1
  101   151   152     1
  102   151   153     1
  103   154   155     1
  104   154   156     1
  105   157   158     1
  106   157   159     1
  107   160   161     1
  108   160   162     1
  109   163   164     1
  110   163   165     1
  111   166   167     1
  112   166   168     1
  113   169   170     1
  114   169   171     1
  115   172   173     1
  116   172   174     1
  117   175   176     1
  118   175   177     1
  119   178   179     1
  120   178   180     1
  121   181   182     1
  122   181   183     1
  123   184   185     1
  124   184   186     1
  125   187   188     1
  126   187   189     1
  127   190   191     1
  128   190   192     1
  129   193   194     1
  130   193   195     1
  131   196   197     1
  132   196   198     1
  133   199   200     1
  134   199   201     1
  135   202   203     1
  136   202   204     1
  137   205   206     1
  138   205   207     1
  139   208   209     1
  140   208   210     1
  141   211   212     1
  142   211   213     1
  143   214   215     1
  144   214   216     1
  145   217   218     1
  146   217   219     1
  147   220   221     1
  148   220   222     1
  149   223   224     1
  150   223   225     1
  151   226   227     1
  152   226   228     1
  153   229   230     1
  154   229   231     1
  155   232   233     1
  156   232   234     1
  157   235   236     1
  158   235   237     1
  159   238   239     1
  160   238   240     1
  161   241   242     1
  162   241   243     1
  163   244   245     1
  164   244   246     1
  165   247   248     1
  166   247   249     1
  167   250   251     1
  168   250   252     1
  169   253   254     1
  170   253   255     1
  171   256   257     1
  172   256   258     1
  173   259   260     1
  174   259   261     1
  175   262   263     1
  176   262   264     1
  177   265   266     1
  178   265   267     1
  179   268   269     1
  180   268   270     1
  181   271   272     1
  182   271   273     1
  183   274   275     1
  184   274   276     1
  185   277   278     1
  186   277   279     1
  187   280   281     1
  188   280   282     1
  189   283   284     1
  190   283   285     1
  191   286   287     1
  192   286   288     1
  193   289   290     1
  194   289   291     1
  195   292   293     1
  196   292   294     1
  197   295   296     1
  198   295   297     1
  199   298   299     1
  200   298   300     1
  201   301   302     1
  202   301   303     1
  203   304   305     1
  204   304   306     1
  205   307   308     1
  206   307   309     1
  207   310   311     1
  208   310   312     1
  209   313   314     1
  210   313   315     1
  211   316   317     1
  212   316   318     1
  213   319   320     1
  214   319   321     1
  215   322   323     1
  216   322   324     1
  217   325   326     1
  218   325   327     1
  219   328   329     1
  220   328   330     1
  221   331   332     1
  222   331   333     1
  223   334   335     1
  224   334   336     1
  225   337   338     1
  226   337   339     1
  227   340   341     1
  228   340   342     1
  229   343   344     1
  230   343   345     1
  231   346   347     1
  232   346   348     1
  233   349   350     1
  234   349   351     1
  235   352   353     1
  236   352   354     1
  237   355   356     1
  238   355   357     1
  239   358   359     1
  240   358   360     1
  241   361   362     1
  242   361   363     1
  243   364   365     1
  244   364   366     1
  245   367   368     1
  246   367   369     1
  247   370   371     1
  248   370   372     1
  249   373   374     1
  250   373   375     1
  251   376   377     1
  252   376   378     1
  253   379   380     1
  254   379   381     1
  255   382   383     1
  256   382   384     1
  257   385   386     1
  258   385   387     1
  259   388   389     1
  260   388   390     1
  261   391   392     1
  262   391   393     1
  263   394   395     1
  264   394   396     1
  265   397   398     1
  266   397   399     1
  267   400   401     1
  268   400   402     1
  269   403   404     1
  270   403   405     1
  271   406   407     1
  272   406   408     1
  273   409   410     1
  274   409   411     1
  275   412   413     1
  276   412   414     1
  277   415   416     1
  278   415   417     1
  279   418   419     1
  280   418   420     1
  281   421   422     1
  282   421   423     1
  283   424   425     1
  284   424   426     1
  285   427   428     1
  286   427   429     1
  287   430   431     1
  288   430   432     1
  289   433   434     1
  290   433   435     1
  291   436   437     1
  292   436   438     1
  293   439   440     1
  294   439   441     1
  295   442   443     1
  296   442   444     1
  297   445   446     1
  298   445   447     1
  299   448   449     1
  300   448   450     1
  301   451   452     1
  302   451   453     1
  303   454   455     1
  304   454   456     1
  305   457   458     1
  306   457   459     1
  307   460   461     1
  308   460   462     1
  309   463   464     1
  310   463   465     1
  311   466   467     1
  312   466   468     1
  313   469   470     1
  314   469   471     1
  315   472   473     1
  316   472   474     1
  317   475   476     1
  318   475   477     1
  319   478   479     1
  320   478   480     1
  321   481   482     1
  322   481   483     1
  323   484   485     1
  324   484   486     1
  325   487   488     1
  326   487   489     1
  327   490   491     1
  328   490   492     1
  329   493   494     1
  330   493   495     1
  331   496   497     1
  332   496   498     1
  333   499   500     1
  334   499   501     1
  335   502   503     1
  336   502   504     1
  337   505   506     1
  338   505   507     1
  339   508   509     1
  340   508   510     1
  341   511   512     1
  342   511   513     1
  343   514   515     1
  344   514   516     1
  345   517   518     1
  346   517   519     1
  347   520   521     1
  348   520   522     1
  349   523   524     1
  350   523   525     1
  351   526   527     1
  352   526   528     1
  353   529   530     1
  354   529   531     1
  355   532   533     1
  356   532   534     1
  357   535   536     1
  358   535   537     1
  359   538   539     1
  360   538   540     1
  361   541   542     1
  362   541   543     1
  363   544   545     1
  364   544   546     1
  365   547   548     1
  366   547   549     1
  367   550   551     1
  368   550   552     1
  369   553   554     1
  370   553   555     1
  371   556   557     1
  372   556   558     1
  373   559   560     1
  374   559   561     1
  375   562   563     1
  376   562   564     1
  377   565   566     1
  378   565   567     1
  379   568   569     1
  380   568   570     1
  381   571   572     1
  382   571   573     1
  383   574   575     1
  384   574   576     1
  385   577   578     1
  386   577   579     1
  387   580   581     1
  388   580   582     1
  389   583   584     1
  390   583   585     1
  391   586   587     1
  392   586   588     1
  393   589   590     1
  394   589   591     1
  395   592   593     1
  396   592   594     1
  397   595   596     1
  398   595   597     1
  399   598   599     1
  400   598   600     1
  401   601   602     1
  402   601   603     1
  403   604   605     1
  404   604   606     1
  405   607   608     1
  406   607   609     1
  407   610   611     1
  408   610   612     1
  409   613   614     1
  410   613   615     1
  411   616   617     1
  412   616   618     1
  413   619   620     1
  414   619   621     1
  415   622   623     1
  416   622   624     1
  417   625   626     1
  418   625   627     1
  419   628   629     1
  420   628   630     1
  421   631   632     1
  422   631   633     1
  423   634   635     1
  424   634   636     1
  425   637   638     1
  426   637   639     1
  427   640   641     1
  428   640   642     1
  429   643   644     1
  430   643   645     1
  431   646   647     1
  432   646   648     1
  433   649   650     1
  434   649   651     1
  435   652   653     1
  436   652   654     1
  437   655   656     1
  438   655   657     1
  439   658   659     1
  440   658   660     1
  441   661   662     1
  442   661   663     1
  443   664   665     1
  444   664   666     1
  445   667   668     1
  446   667   669     1
  447   670   671     1
  448   670   672     1
  449   673   674     1
  450   673   675     1
  451   676   677     1
  452   676   678     1
  453   679   680     1
  454   679   681     1
  455   682   683     1
  456   682   684     1
  457   685   686     1
  458   685   687     1
  459   688   689     1
  460   688   690     1
  461   691   692     1
  462   691   693     1
  463   694   695     1
  464   694   696     1
  465   697   698     1
  466   697   699     1
  467   700   701     1
  468   700   702     1
  469   703   704     1
  470   703   705     1
  471   706   707     1
  472   706   708     1
  473   709   710     1
  474   709   711     1
  475   712   713     1
  476   712   714     1
  477   715   716     1
  478   715   717     1
  479   718   719     1
  480   718   720     1
  481   721   722     1
  482   721   723     1
  483   724   725     1
  484   724   726     1
  485   727   728     1
  486   727   729     1
  487   730   731     1
  488   730   732     1
  489   733   734     1
  490   733   735     1
  491   736   737     1
  492   736   738     1
  493   739   740     1
  494   739   741     1
  495   742   743     1
  496   742   744     1
  497   745   746     1
  498   745   747     1
  499   748   749     1
  500   748   750     1
  501   751   752     1
  502   751   753     1
  503   754   755     1
  504   754   756     1
  505   757   758     1
  506   757   759     1
  507   760   761     1
  508   760   762     1
  509   763   764     1
  510   763   765     1
  511   766   767     1
  512   766   768     1
  513   769   770     1
  514   769   771     1
  515   772   773     1
  516   772   774     1
  517   775   776     1
  518   775   777     1
  519   778   779     1
  520   778   780     1
  521   781   782     1
  522   781   783     1
  523   784   785     1
  524   784   786     1
  525   787   788     1
  526   787   789     1
  527   790   791     1
  528   790   792     1
  529   793   794     1
  530   793   795     1
  531   796   797     1
  532   796   798     1
  533   799   800     1
  534   799   801     1
  535   802   803     1
  536   802   804     1
  537   805   806     1
  538   805   807     1
  539   808   809     1
  540   808   810     1
  541   811   812     1
  542   811   813     1
  543   814   815     1
  544   814   816     1
  545   817   818     1
  546   817   819     1
  547   820   821     1
  548   820   822     1
  549   823   824     1
  550   823   825     1
  551   826   827     1
  552   826   828     1
  553   829   830     1
  554   829   831     1
  555   832   833     1
  556   832   834     1
  557   835   836     1
  558   835   837     1
  559   838   839     1
  560   838   840     1
  561   841   842     1
  562   841   843     1
  563   844   845     1
  564   844   846     1
  565   847   848     1
  566   847   849     1
  567   850   851     1
  568   850   852     1
  569   853   854     1
  570   853   855     1
  571   856   857     1
  572   856   858     1
  573   859   860     1
  574   859   861     1
  575   862   863     1
  576   862   864     1
  577   865   866     1
  578   865   867     1
  579   868   869     1
  580   868   870     1
  581   871   872     1
  582   871   873     1
  583   874   875     1
  584   874   876     1
  585   877   878     1
  586   877   879     1
  587   880   881     1
  588   880   882     1
  589   883   884     1
  590   883   885     1
  591   886   887     1
  592   886   888     1
  593   889   890     1
  594   889   891     1
  595   892   893     1
  596   892   894     1
  597   895   896     1
  598   895   897     1
  599   898   899     1
  600   898   900     1
  601   901   902     1
  602   901   903     1
  603   904   905     1
  604   904   906     1
  605   907   908     1
  606   907   909     1
  607   910   911     1
  608   910   912     1
  609   913   914     1
  610   913   915     1
  611   916   917     1
  612   916   918     1
  613   919   920     1
  614   919   921     1
  615   922   923     1
  616   922   924     1
  617   925   926     1
  618   925   927     1
  619   928   929     1
  620   928   930     1
  621   931   932     1
  622   931   933     1
  623   934   935     1
  624   934   936     1
  625   937   938     1
  626   937   939     1
  627   940   941     1
  628   940   942     1
  629   943   944     1
  630   943   945     1
  631   946   947     1
  632   946   948     1
  633   949   950     1
  634   949   951     1
  635   952   953     1
  636   952   954     1
  637   955   956     1
  638   955   957     1
  639   958   959     1
  640   958   960     1
  641   961   962     1
  642   961   963     1
  643   964   965     1
  644   964   966     1
  645   967   968     1
  646   967   969     1
  647   970   971     1
  648   970   972     1
  649   973   974     1
  650   973   975     1
  651   976   977     1
  652   976   978     1
  653   979   980     1
  654   979   981     1
  655   982   983     1
  656   982   984     1
  657   985   986     1
  658   985   987     1
  659   988   989     1
  660   988   990     1
  661   991   992     1
  662   991   993     1
  663   994   995     1
  664   994   996     1
  665   997   998     1
  666   997   999     1
  667  1000  1001     1
  668  1000  1002     1
  669  1003  1004     1
  670  1003  1005     1
  671  1006  1007     1
  672  1006  1008     1
  673  1009  1010     1
  674  1009  1011     1
  675  1012  1013     1
  676  1012  1014     1
  677  1015  1016     1
  678  1015  1017     1
  679  1018  1019     1
  680  1018  1020     1
  681  1021  1022     1
  682  1021  1023     1
  683  1024  1025     1
  684  1024  1026     1
  685  1027  1028     1
  686  1027  1029     1
  687  1030  1031     1
  688  1030  1032     1
  689  1033  1034     1
  690  1033  1035     1
  691  1036  1037     1
  692  1036  1038     1
  693  1039  1040     1
  694  1039  1041     1
  695  1042  1043     1
  696  1042  1044     1
  697  1045  1046     1
  698  1045  1047     1
  699  1048  1049     1
  700  1048  1050     1
  701  1051  1052     1
  702  1051  1053     1
  703  1054  1055     1
  704  1054  1056     1
  705  1057  1058     1
  706  1057  1059     1
  707  1060  1061     1
  708  1060  1062     1
  709  1063  1064     1
  710  1063  1065     1
  711  1066  1067     1
  712  1066  1068     1
  713  1069  1070     1
  714  1069  1071     1
  715  1072  1073     1
  716  1072  1074     1
  717  1075  1076     1
  718  1075  1077     1
  719  1078  1079     1
  720  1078  1080     1
  721  1081  1082     1
  722  1081  1083     1
  723  1084  1085     1
  724  1084  1086     1
  725  1087  1088     1
  726  1087  1089     1
  727  1090  1091     1
  728  1090  1092     1
  729  1093  1094     1
  730  1093  1095     1
  731  1096  1097     1
  732  1096  1098     1
  733  1099  1100     1
  734  1099  1101     1
  735  1102  1103     1
  736  1102  1104     1
  737  1105  1106     1
  738  1105  1107     1
  739  1108  1109     1
  740  1108  1110     1
  741  1111  1112     1
  742  1111  1113     1
  743  1114  1115     1
  744  1114  1116     1
  745  1117  1118     1
  746  1117  1119     1
  747  1120  1121     1
  748  1120  1122     1
  749  1123  1124     1
  750  1123  1125     1
  751  1126  1127     1
  752  1126  1128     1
  753  1129  1130     1
  754  1129  1131     1
  755  1132  1133     1
  756  1132  1134     1
  757  1135  1136     1
  758  1135  1137     1
  759  1138  1139     1
  760  1138  1140     1
  761  1141  1142     1
  762  1141  1143     1
  763  1144  1145     1
  764  1144  1146     1
  765  1147  1148     1
  766  1147  1149     1
  767  1150  1151     1
  768  1150  1152     1
  769  1153  1154     1
  770  1153  1155     1
  771  1156  1157     1
  772  1156  1158     1
  773  1159  1160     1
  774  1159  1161     1
  775  1162  1163     1
  776  1162  1164     1
  777  1165  1166     1
  778  1165  1167     1
  779  1168  1169     1
  780  1168  1170     1
  781  1171  1172     1
  782  1171  1173     1
  783  1174  1175     1
  784  1174  1176     1
  785  1177  1178     1
  786  1177  1179     1
  787  1180  1181     1
  788  1180  1182     1
  789  1183  1184     1
  790  1183  1185     1
  791  1186  1187     1
  792  1186  1188     1
  793  1189  1190     1
  794  1189  1191     1
  795  1192  1193     1
  796  1192  1194     1
  797  1195  1196     1
  798  1195  1197     1
  799  1198  1199     1
  800  1198  1200     1
  801  1201  1202     1
  802  1201  1203     1
  803  1204  1205     1
  804  1204  1206     1
  805  1207  1208     1
  806  1207  1209     1
  807  1210  1211     1
  808  1210  1212     1
  809  1213  1214     1
  810  1213  1215     1
  811  1216  1217     1
  812  1216  1218     1
  813  1219  1220     1
  814  1219  1221     1
  815  1222  1223     1
  816  1222  1224     1
  817  1225  1226     1
  818  1225  1227     1
  819  1228  1229     1
  820  1228  1230     1
  821  1231  1232     1
  822  1231  1233     1
  823  1234  1235     1
  824  1234  1236     1
  825  1237  1238     1
  826  1237  1239     1
  827  1240  1241     1
  828  1240  1242     1
  829  1243  1244     1
  830  1243  1245     1
  831  1246  1247     1
  832  1246  1248     1
  833  1249  1250     1
  834  1249  1251     1
  835  1252  1253     1
  836  1252  1254     1
  837  1255  1256     1
  838  1255  1257     1
  839  1258  1259     1
  840  1258  1260     1
  841  1261  1262     1
  842  1261  1263     1
  843  1264  1265     1
  844  1264  1266     1
  845  1267  1268     1
  846  1267  1269     1
  847  1270  1271     1
  848  1270  1272     1
  849  1273  1274     1
  850  1273  1275     1
  851  1276  1277     1
  852  1276  1278     1
  853  1279  1280     1
  854  1279  1281     1
  855  1282  1283     1
  856  1282  1284     1
  857  1285  1286     1
  858  1285  1287     1
  859  1288  1289     1
  860  1288  1290     1
  861  1291  1292     1
  862  1291  1293     1
  863  1294  1295     1
  864  1294  1296     1
  865  1297  1298     1
  866  1297  1299     1
  867  1300  1301     1
  868  1300  1302     1
  869  1303  1304     1
  870  1303  1305     1
  871  1306  1307     1
  872  1306  1308     1
  873  1309  1310     1
  874  1309  1311     1
  875  1312  1313     1
  876  1312  1314     1
  877  1315  1316     1
  878  1315  1317     1
  879  1318  1319     1
  880  1318  1320     1
  881  1321  1322     1
  882  1321  1323     1
  883  1324  1325     1
  884  1324  1326     1
  885  1327  1328     1
  886  1327  1329     1
  887  1330  1331     1
  888  1330  1332     1
  889  1333  1334     1
  890  1333  1335     1
  891  1336  1337     1
  892  1336  1338     1
  893  1339  1340     1
  894  1339  1341     1
  895  1342  1343     1
  896  1342  1344     1
  897  1345  1346     1
  898  1345  1347     1
  899  1348  1349     1
  900  1348  1350     1
  901  1351  1352     1
  902  1351  1353     1
  903  1354  1355     1
  904  1354  1356     1
  905  1357  1358     1
  906  1357  1359     1
  907  1360  1361     1
  908  1360  1362     1
  909  1363  1364     1
  910  1363  1365     1
  911  1366  1367     1
  912  1366  1368     1
  913  1369  1370     1
  914  1369  1371     1
  915  1372  1373     1
  916  1372  1374     1
  917  1375  1376     1
  918  1375  1377     1
  919  1378  1379     1
  920  1378  1380     1
  921  1381  1382     1
  922  1381  1383     1
  923  1384  1385     1
  924  1384  1386     1
  925  1387  1388     1
  926  1387  1389     1
  927  1390  1391     1
  928  1390  1392     1
  929  1393  1394     1
  930  1393  1395     1
  931  1396  1397     1
  932  1396  1398     1
  933  1399  1400     1
  934  1399  1401     1
  935  1402  1403     1
  936  1402  1404     1
  937  1405  1406     1
  938  1405  1407     1
  939  1408  1409     1
  940  1408  1410     1
  941  1411  1412     1
  942  1411  1413     1
  943  1414  1415     1
  944  1414  1416     1
  945  1417  1418     1
  946  1417  1419     1
  947  1420  1421     1
  948  1420  1422     1
  949  1423  1424     1
  950  1423  1425     1
  951  1426  1427     1
  952  1426  1428     1
  953  1429  1430     1
  954  1429  1431     1
  955  1432  1433     1
  956  1432  1434     1
  957  1435  1436     1
  958  1435  1437     1
  959  1438  1439     1
  960  1438  1440     1
  961  1441  1442     1
  962  1441  1443     1
  963  1444  1445     1
  964  1444  1446     1
  965  1447  1448     1
  966  1447  1449     1
  967  1450  1451     1
  968  1450  1452     1
  969  1453  1454     1
  970  1453  1455     1
  971  1456  1457     1
  972  1456  1458     1
  973  1459  1460     1
  974  1459  1461     1
  975  1462  1463     1
  976  1462  1464     1
  977  1465  1466     1
  978  1465  1467     1
  979  1468  1469     1
  980  1468  1470     1
  981  1471  1472     1
  982  1471  1473     1
  983  1474  1475     1
  984  1474  1476     1
  985  1477  1478     1
  986  1477  1479     1
  987  1480  1481     1
  988  1480  1482     1
  989  1483  1484     1
  990  1483  1485     1
  991  1486  1487     1
  992  1486  1488     1
  993  1489  1490     1
  994  1489  1491     1
  995  1492  1493     1
  996  1492  1494     1
  997  1495  1496     1
  998  1495  1497     1
  999  1498  1499     1
 1000  1498  1500     1
 1001  1501  1502     1
 1002  1501  1503     1
 1003  1504  1505     1
 1004  1504  1506     1
 1005  1507  1508     1
 1006  1507  1509     1
 1007  1510  1511     1
 1008  1510  1512     1
 1009  1513  1514     1
 1010  1513  1515     1
 1011  1516  1517     1
 1012  1516  1518     1
 1013  1519  1520     1
 1014  1519  1521     1
 1015  1522  1523     1
 1016  1522  1524     1
 1017  1525  1526     1
 1018  1525  1527     1
 1019  1528  1529     1
 1020  1528  1530     1
 1021  1531  1532     1
 1022  1531  1533     1
 1023  1534  1535     1
 1024  1534  1536     1
 1025  1537  1538     1
 1026  1537  1539     1
 1027  1540  1541     1
 1028  1540  1542     1
 1029  1543  1544     1
 1030  1543  1545     1
 1031  1546  1547     1
 1032  1546  1548     1
 1033  1549  1550     1
 1034  1549  1551     1
 1035  1552  1553     1
 1036  1552  1554     1
 1037  1555  1556     1
 1038  1555  1557     1
 1039  1558  1559     1
 1040  1558  1560     1
 1041  1561  1562     1
 1042  1561  1563     1
 1043  1564  1565     1
 1044  1564  1566     1
 1045  1567  1568     1
 1046  1567  1569     1
 1047  1570  1571     1
 1048  1570  1572     1
 1049  1573  1574     1
 1050  1573  1575     1
 1051  1576  1577     1
 1052  1576  1578     1
 1053  1579  1580     1
 1054  1579  1581     1
 1055  1582  1583     1
 1056  1582  1584     1
 1057  1585  1586     1
 1058  1585  1587     1
 1059  1588  1589     1
 1060  1588  1590     1
 1061  1591  1592     1
 1062  1591  1593     1
 1063  1594  1595     1
 1064  1594  1596     1
 1065  1597  1598     1
 1066  1597  1599     1
 1067  1600  1601     1
 1068  1600  1602     1
 1069  1603  1604     1
 1070  1603  1605     1
 1071  1606  1607     1
 1072  1606  1608     1
 1073  1609  1610     1
 1074  1609  1611     1
 1075  1612  1613     1
 1076  1612  1614     1
 1077  1615  1616     1
 1078  1615  1617     1
 1079  1618  1619     1
 1080  1618  1620     1
 1081  1621  1622     1
 1082  1621  1623     1
 1083  1624  1625     1
 1084  1624  1626     1
 1085  1627  1628     1
 1086  1627  1629     1
 1087  1630  1631     1
 1088  1630  1632     1
 1089  1633  1634     1
 1090  1633  1635     1
 1091  1636  1637     1
 1092  1636  1638     1
 1093  1639  1640     1
 1094  1639  1641     1
 1095  1642  1643     1
 1096  1642  1644     1
 1097  1645  1646     1
 1098  1645  1647     1
 1099  1648  1649     1
 1100  1648  1650     1
 1101  1651  1652     1
 1102  1651  1653     1
 1103  1654  1655     1
 1104  1654  1656     1
 1105  1657  1658     1
 1106  1657  1659     1
 1107  1660  1661     1
 1108  1660  1662     1
 1109  1663  1664     1
 1110  1663  1665     1
 1111  1666  1667     1
 1112  1666  1668     1
 1113  1669  1670     1
 1114  1669  1671     1
 1115  1672  1673     1
 1116  1672  1674     1
 1117  1675  1676     1
 1118  1675  1677     1
 1119  1678  1679     1
 1120  1678  1680     1
 1121  1681  1682     1
 1122  1681  1683     1
 1123  1684  1685     1
 1124  1684  1686     1
 1125  1687  1688     1
 1126  1687  1689     1
 1127  1690  1691     1
 1128  1690  1692     1
 1129  1693  1694     1
 1130  1693  1695     1
 1131  1696  1697     1
 1132  1696  1698     1
 1133  1699  1700     1
 1134  1699  1701     1
 1135  1702  1703     1
 1136  1702  1704     1
 1137  1705  1706     1
 1138  1705  1707     1
 1139  1708  1709     1
 1140  1708  1710     1
 1141  1711  1712     1
 1142  1711  1713     1
 1143  1714  1715     1
 1144  1714  1716     1
 1145  1717  1718     1
 1146  1717  1719     1
 1147  1720  1721     1
 1148  1720  1722     1
 1149  1723  1724     1
 1150  1723  1725     1
 1151  1726  1727     1
 1152  1726  1728     1
 1153  1729  1730     1
 1154  1729  1731     1
 1155  1732  1733     1
 1156  1732  1734     1
 1157  1735  1736     1
 1158  1735  1737     1
 1159  1738  1739     1
 1160  1738  1740     1
 1161  1741  1742     1
 1162  1741  1743     1
 1163  1744  1745     1
 1164  1744  1746     1
 1165  1747  1748     1
 1166  1747  1749     1
 1167  1750  1751     1
 1168  1750  1752     1
 1169  1753  1754     1
 1170  1753  1755     1
 1171  1756  1757     1
 1172  1756  1758     1
 1173  1759  1760     1
 1174  1759  1761     1
 1175  1762  1763     1
 1176  1762  1764     1
 1177  1765  1766     1
 1178  1765  1767     1
 1179  1768  1769     1
 1180  1768  1770     1
 1181  1771  1772     1
 1182  1771  1773     1
 1183  1774  1775     1
 1184  1774  1776     1
 1185  1777  1778     1
 1186  1777  1779     1
 1187  1780  1781     1
 1188  1780  1782     1
 1189  1783  1784     1
 1190  1783  1785     1
 1191  1786  1787     1
 1192  1786  1788     1
 1193  1789  1790     1
 1194  1789  1791     1
 1195  1792  1793     1
 1196  1792  1794     1
 1197  1795  1796     1
 1198  1795  1797     1
 1199  1798  1799     1
 1200  1798  1800     1
 1201  1801  1802     1
 1202  1801  1803     1
 1203  1804  1805     1
 1204  1804  1806     1
 1205  1807  1808     1
 1206  1807  1809     1
 1207  1810  1811     1
 1208  1810  1812     1
 1209  1813  1814     1
 1210  1813  1815     1
 1211  1816  1817     1
 1212  1816  1818     1
 1213  1819  1820     1
 1214  1819  1821     1
 1215  1822  1823     1
 1216  1822  1824     1
 1217  1825  1826     1
 1218  1825  1827     1
 1219  1828  1829     1
 1220  1828  1830     1
 1221  1831  1832     1
 1222  1831  1833     1
 1223  1834  1835     1
 1224  1834  1836     1
 1225  1837  1838     1
 1226  1837  1839     1
 1227  1840  1841     1
 1228  1840  1842     1
 1229  1843  1844     1
 1230  1843  1845     1
 1231  1846  1847     1
 1232  1846  1848     1
 1233  1849  1850     1
 1234  1849  1851     1
 1235  1852  1853     1
 1236  1852  1854     1
 1237  1855  1856     1
 1238  1855  1857     1
 1239  1858  1859     1
 1240  1858  1860     1
 1241  1861  1862     1
 1242  1861  1863     1
 1243  1864  1865     1
 1244  1864  1866     1
 1245  1867  1868     1
 1246  1867  1869     1
 1247  1870  1871     1
 1248  1870  1872     1
 1249  1873  1874     1
 1250  1873  1875     1
 1251  1876  1877     1
 1252  1876  1878     1
 1253  1879  1880     1
 1254  1879  1881     1
 1255  1882  1883     1
 1256  1882  1884     1
 1257  1885  1886     1
 1258  1885  1887     1
 1259  1888  1889     1
 1260  1888  1890     1
 1261  1891  1892     1
 1262  1891  1893     1
 1263  1894  1895     1
 1264  1894  1896     1
 1265  1897  1898     1
 1266  1897  1899     1
 1267  1900  1901     1
 1268  1900  1902     1
 1269  1903  1904     1
 1270  1903  1905     1
 1271  1906  1907     1
 1272  1906  1908     1
 1273  1909  1910     1
 1274  1909  1911     1
 1275  1912  1913     1
 1276  1912  1914     1
 1277  1915  1916     1
 1278  1915  1917     1
 1279  1918  1919     1
 1280  1918  1920     1
 1281  1921  1922     1
 1282  1921  1923     1
 1283  1924  1925     1
 1284  1924  1926     1
 1285  1927  1928     1
 1286  1927  1929     1
 1287  1930  1931     1
 1288  1930  1932     1
 1289  1933  1934     1
 1290  1933  1935     1
 1291  1936  1937     1
 1292  1936  1938     1
 1293  1939  1940     1
 1294  1939  1941     1
 1295  1942  1943     1
 1296  1942  1944     1
 1297  1945  1946     1
 1298  1945  1947     1
 1299  1948  1949     1
 1300  1948  1950     1
 1301  1951  1952     1
 1302  1951  1953     1
 1303  1954  1955     1
 1304  1954  1956     1
 1305  1957  1958     1
 1306  1957  1959     1
 1307  1960  1961     1
 1308  1960  1962     1
 1309  1963  1964     1
 1310  1963  1965     1
 1311  1966  1967     1
 1312  1966  1968     1
 1313  1969  1970     1
 1314  1969  1971     1
 1315  1972  1973     1
 1316  1972  1974     1
 1317  1975  1976     1
 1318  1975  1977     1
 1319  1978  1979     1
 1320  1978  1980     1
 1321  1981  1982     1
 1322  1981  1983     1
 1323  1984  1985     1
 1324  1984  1986     1
 1325  1987  1988     1
 1326  1987  1989     1
 1327  1990  1991     1
 1328  1990  1992     1
 1329  1993  1994     1
 1330  1993  1995     1
 1331  1996  1997     1
 1332  1996  1998     1
 1333  1999  2000     1
 1334  1999  2001     1
 1335  2002  2003     1
 1336  2002  2004     1
 1337  2005  2006     1
 1338  2005  2007     1
 1339  2008  2009     1
 1340  2008  2010     1
 1341  2011  2012     1
 1342  2011  2013     1
 1343  2014  2015     1
 1344  2014  2016     1
 1345  2017  2018     1
 1346  2017  2019     1
 1347  2020  2021     1
 1348  2020  2022     1
 1349  2023  2024     1
 1350  2023  2025     1
 1351  2026  2027     1
 1352  2026  2028     1
 1353  2029  2030     1
 1354  2029  2031     1
 1355  2032  2033     1
 1356  2032  2034     1
 1357  2035  2036     1
 1358  2035  2037     1
 1359  2038  2039     1
 1360  2038  2040     1
 1361  2041  2042     1
 1362  2041  2043     1
 1363  2044  2045     1
 1364  2044  2046     1
 1365  2047  2048     1
 1366  2047  2049     1
 1367  2050  2051     1
 1368  2050  2052     1
 1369  2053  2054     1
 1370  2053  2055     1
 1371  2056  2057     1
 1372  2056  2058     1
 1373  2059  2060     1
 1374  2059  2061     1
 1375  2062  2063     1
 1376  2062  2064     1
 1377  2065  2066     1
 1378  2065  2067     1
 1379  2068  2069     1
 1380  2068  2070     1
 1381  2071  2072     1
 1382  2071  2073     1
 1383  2074  2075     1
 1384  2074  2076     1
 1385  2077  2078     1
 1386  2077  2079     1
 1387  2080  2081     1
 1388  2080  2082     1
 1389  2083  2084     1
 1390  2083  2085     1
 1391  2086  2087     1
 1392  2086  2088     1
 1393  2089  2090     1
 1394  2089  2091     1
 1395  2092  2093     1
 1396  2092  2094     1
 1397  2095  2096     1
 1398  2095  2097     1
 1399  2098  2099     1
 1400  2098  2100     1
 1401  2101  2102     1
 1402  2101  2103     1
 1403  2104  2105     1
 1404  2104  2106     1
 1405  2107  2108     1
 1406  2107  2109     1
 1407  2110  2111     1
 1408  2110  2112     1
 1409  2113  2114     1
 1410  2113  2115     1
 1411  2116  2117     1
 1412  2116  2118     1
 1413  2119  2120     1
 1414  2119  2121     1
 1415  2122  2123     1
 1416  2122  2124     1
 1417  2125  2126     1
 1418  2125  2127     1
 1419  2128  2129     1
 1420  2128  2130     1
 1421  2131  2132     1
 1422  2131  2133     1
 1423  2134  2135     1
 1424  2134  2136     1
 1425  2137  2138     1
 1426  2137  2139     1
 1427  2140  2141     1
 1428  2140  2142     1
 1429  2143  2144     1
 1430  2143  2145     1
 1431  2146  2147     1
 1432  2146  2148     1
 1433  2149  2150     1
 1434  2149  2151     1
 1435  2152  2153     1
 1436  2152  2154     1
 1437  2155  2156     1
 1438  2155  2157     1
 1439  2158  2159     1
 1440  2158  2160     1
 1441  2161  2162     1
 1442  2161  2163     1
 1443  2164  2165     1
 1444  2164  2166     1
 1445  2167  2168     1
 1446  2167  2169     1
 1447  2170  2171     1
 1448  2170  2172     1
 1449  2173  2174     1
 1450  2173  2175     1
 1451  2176  2177     1
 1452  2176  2178     1
 1453  2179  2180     1
 1454  2179  2181     1
 1455  2182  2183     1
 1456  2182  2184     1
 1457  2185  2186     1
 1458  2185  2187     1
 1459  2188  2189     1
 1460  2188  2190     1
 1461  2191  2192     1
 1462  2191  2193     1
 1463  2194  2195     1
 1464  2194  2196     1
 1465  2197  2198     1
 1466  2197  2199     1
 1467  2200  2201     1
 1468  2200  2202     1
 1469  2203  2204     1
 1470  2203  2205     1
 1471  2206  2207     1
 1472  2206  2208     1
 1473  2209  2210     1
 1474  2209  2211     1
 1475  2212  2213     1
 1476  2212  2214     1
 1477  2215  2216     1
 1478  2215  2217     1
 1479  2218  2219     1
 1480  2218  2220     1
 1481  2221  2222     1
 1482  2221  2223     1
 1483  2224  2225     1
 1484  2224  2226     1
 1485  2227  2228     1
 1486  2227  2229     1
 1487  2230  2231     1
 1488  2230  2232     1
 1489  2233  2234     1
 1490  2233  2235     1
 1491  2236  2237     1
 1492  2236  2238     1
 1493  2239  2240     1
 1494  2239  2241     1
 1495  2242  2243     1
 1496  2242  2244     1
 1497  2245  2246     1
 1498  2245  2247     1
 1499  2248  2249     1
 1500  2248  2250     1
 1501  2251  2252     1
 1502  2251  2253     1
 1503  2254  2255     1
 1504  2254  2256     1
 1505  2257  2258     1
 1506  2257  2259     1
 1507  2260  2261     1
 1508  2260  2262     1
 1509  2263  2264     1
 1510  2263  2265     1
 1511  2266  2267     1
 1512  2266  2268     1
 1513  2269  2270     1
 1514  2269  2271     1
 1515  2272  2273     1
 1516  2272  2274     1
 1517  2275  2276     1
 1518  2275  2277     1
 1519  2278  2279     1
 1520  2278  2280     1
 1521  2281  2282     1
 1522  2281  2283     1
 1523  2284  2285     1
 1524  2284  2286     1
 1525  2287  2288     1
 1526  2287  2289     1
 1527  2290  2291     1
 1528  2290  2292     1
 1529  2293  2294     1
 1530  2293  2295     1
 1531  2296  2297     1
 1532  2296  2298     1
 1533  2299  2300     1
 1534  2299  2301     1
 1535  2302  2303     1
 1536  2302  2304     1
 1537  2305  2306     1
 1538  2305  2307     1
 1539  2308  2309     1
 1540  2308  2310     1
 1541  2311  2312     1
 1542  2311  2313     1
 1543  2314  2315     1
 1544  2314  2316     1
 1545  2317  2318     1
 1546  2317  2319     1
 1547  2320  2321     1
 1548  2320  2322     1
 1549  2323  2324     1
 1550  2323  2325     1
 1551  2326  2327     1
 1552  2326  2328     1
 1553  2329  2330     1
 1554  2329  2331     1
 1555  2332  2333     1
 1556  2332  2334     1
 1557  2335  2336     1
 1558  2335  2337     1
 1559  2338  2339     1
 1560  2338  2340     1
 1561  2341  2342     1
 1562  2341  2343     1
 1563  2344  2345     1
 1564  2344  2346     1
 1565  2347  2348     1
 1566  2347  2349     1
 1567  2350  2351     1
 1568  2350  2352     1
 1569  2353  2354     1
 1570  2353  2355     1
 1571  2356  2357     1
 1572  2356  2358     1
 1573  2359  2360     1
 1574  2359  2361     1
 1575  2362  2363     1
 1576  2362  2364     1
 1577  2365  2366     1
 1578  2365  2367     1
 1579  2368  2369     1
 1580  2368  2370     1
 1581  2371  2372     1
 1582  2371  2373     1
 1583  2374  2375     1
 1584  2374  2376     1
 1585  2377  2378     1
 1586  2377  2379     1
 1587  2380  2381     1
 1588  2380  2382     1
 1589  2383  2384     1
 1590  2383  2385     1
 1591  2386  2387     1
 1592  2386  2388     1
 1593  2389  2390     1
 1594  2389  2391     1
 1595  2392  2393     1
 1596  2392  2394     1
 1597  2395  2396     1
 1598  2395  2397     1
 1599  2398  2399     1
 1600  2398  2400     1
 1601  2401  2402     1
 1602  2401  2403     1
 1603  2404  2405     1
 1604  2404  2406     1
 1605  2407  2408     1
 1606  2407  2409     1
 1607  2410  2411     1
 1608  2410  2412     1
 1609  2413  2414     1
 1610  2413  2415     1
 1611  2416  2417     1
 1612  2416  2418     1
 1613  2419  2420     1
 1614  2419  2421     1
 1615  2422  2423     1
 1616  2422  2424     1
 1617  2425  2426     1
 1618  2425  2427     1
 1619  2428  2429     1
 1620  2428  2430     1
 1621  2431  2432     1
 1622  2431  2433     1
 1623  2434  2435     1
 1624  2434  2436     1
 1625  2437  2438     1
 1626  2437  2439     1
 1627  2440  2441     1
 1628  2440  2442     1
 1629  2443  2444     1
 1630  2443  2445     1
 1631  2446  2447     1
 1632  2446  2448     1
 1633  2449  2450     1
 1634  2449  2451     1
 1635  2452  2453     1
 1636  2452  2454     1
 1637  2455  2456     1
 1638  2455  2457     1
 1639  2458  2459     1
 1640  2458  2460     1
 1641  2461  2462     1
 1642  2461  2463     1
 1643  2464  2465     1
 1644  2464  2466     1
 1645  2467  2468     1
 1646  2467  2469     1
 1647  2470  2471     1
 1648  2470  2472     1
 1649  2473  2474     1
 1650  2473  2475     1
 1651  2476  2477     1
 1652  2476  2478     1
 1653  2479  2480     1
 1654  2479  2481     1
 1655  2482  2483     1
 1656  2482  2484     1
 1657  2485  2486     1
 1658  2485  2487     1
 1659  2488  2489     1
 1660  2488  2490     1
 1661  2491  2492     1
 1662  2491  2493     1
 1663  2494  2495     1
 1664  2494  2496     1
 1665  2497  2498     1
 1666  2497  2499     1
 1667  2500  2501     1
 1668  2500  2502     1
 1669  2503  2504     1
 1670  2503  2505     1
 1671  2506  2507     1
 1672  2506  2508     1
 1673  2509  2510     1
 1674  2509  2511     1
 1675  2512  2513     1
 1676  2512  2514     1
 1677  2515  2516     1
 1678  2515  2517     1
 1679  2518  2519     1
 1680  2518  2520     1
 1681  2521  2522     1
 1682  2521  2523     1
 1683  2524  2525     1
 1684  2524  2526     1
 1685  2527  2528     1
 1686  2527  2529     1
 1687  2530  2531     1
 1688  2530  2532     1
 1689  2533  2534     1
 1690  2533  2535     1
 1691  2536  2537     1
 1692  2536  2538     1
 1693  2539  2540     1
 1694  2539  2541     1
 1695  2542  2543     1
 1696  2542  2544     1
 1697  2545  2546     1
 1698  2545  2547     1
 1699  2548  2549     1
 1700  2548  2550     1
 1701  2551  2552     1
 1702  2551  2553     1
 1703  2554  2555     1
 1704  2554  2556     1
 1705  2557  2558     1
 1706  2557  2559     1
 1707  2560  2561     1
 1708  2560  2562     1
 1709  2563  2564     1
 1710  2563  2565     1
 1711  2566  2567     1
 1712  2566  2568     1
 1713  2569  2570     1
 1714  2569  2571     1
 1715  2572  2573     1
 1716  2572  2574     1
 1717  2575  2576     1
 1718  2575  2577     1
 1719  2578  2579     1
 1720  2578  2580     1
 1721  2581  2582     1
 1722  2581  2583     1
 1723  2584  2585     1
 1724  2584  2586     1
 1725  2587  2588     1
 1726  2587  2589     1
 1727  2590  2591     1
 1728  2590  2592     1
 1729  2593  2594     1
 1730  2593  2595     1
 1731  2596  2597     1
 1732  2596  2598     1
 1733  2599  2600     1
 1734  2599  2601     1
 1735  2602  2603     1
 1736  2602  2604     1
 1737  2605  2606     1
 1738  2605  2607     1
 1739  2608  2609     1
 1740  2608  2610     1
 1741  2611  2612     1
 1742  2611  2613     1
 1743  2614  2615     1
 1744  2614  2616     1
 1745  2617  2618     1
 1746  2617  2619     1
 1747  2620  2621     1
 1748  2620  2622     1
 1749  2623  2624     1
 1750  2623  2625     1
 1751  2626  2627     1
 1752  2626  2628     1
 1753  2629  2630     1
 1754  2629  2631     1
 1755  2632  2633     1
 1756  2632  2634     1
 1757  2635  2636     1
 1758  2635  2637     1
 1759  2638  2639     1
 1760  2638  2640     1
 1761  2641  2642     1
 1762  2641  2643     1
 1763  2644  2645     1
 1764  2644  2646     1
 1765  2647  2648     1
 1766  2647  2649     1
 1767  2650  2651     1
 1768  2650  2652     1
