@<TRIPOS>MOLECULE
MOL
13749 14958 1 0 0
SMALL
USER_CHARGES


@<TRIPOS>ATOM
  1    Cu   0.0800   0.0900   0.4800 C     1    CU   0.0000
  2    Cu   0.0900   0.0100   4.0300 C     1    CU   0.0000
  3    Cu   0.0400   1.7800   2.2100 C     1    CU   0.0000
  4    Cu   1.8500   0.1100   2.3200 C     1    CU   0.0000
  5    Cu   1.9300   1.7700   0.5200 C     1    CU   0.0000
  6    Cu   1.8000   1.8300   4.1100 C     1    CU   0.0000
  7    Cu   3.7100   0.1000   0.5900 C     1    CU   0.0000
  8    Cu   3.6000   0.1200   4.1600 C     1    CU   0.0000
  9    Cu   3.6800   1.8000   2.3700 C     1    CU   0.0000
 10    Cu   5.4700   0.1100   2.4200 C     1    CU   0.0000
 11    Cu   5.5000   1.7800   0.6100 C     1    CU   0.0000
 12    Cu   5.4300   1.8000   4.2500 C     1    CU   0.0000
 13    Cu   7.2700   0.1100   0.6200 C     1    CU   0.0000
 14    Cu   7.2500   0.1200   4.2700 C     1    CU   0.0000
 15    Cu   7.2600   1.7900   2.4300 C     1    CU   0.0000
 16    Cu   9.0500   0.1200   2.4300 C     1    CU   0.0000
 17    Cu   9.0500   1.7800   0.6000 C     1    CU   0.0000
 18    Cu   9.0600   1.8100   4.2600 C     1    CU   0.0000
 19    Cu  10.8300   0.1100   0.5900 C     1    CU   0.0000
 20    Cu  10.8600   0.1200   4.2700 C     1    CU   0.0000
 21    Cu  10.8600   1.7900   2.4100 C     1    CU   0.0000
 22    Cu  12.6400   0.1100   2.4000 C     1    CU   0.0000
 23    Cu  12.6300   1.7800   0.5700 C     1    CU   0.0000
 24    Cu  12.6700   1.7900   4.2400 C     1    CU   0.0000
 25    Cu  14.4200   0.1000   0.5600 C     1    CU   0.0000
 26    Cu  14.4800   0.1000   4.1800 C     1    CU   0.0000
 27    Cu  14.4400   1.8000   2.3700 C     1    CU   0.0000
 28    Cu  16.2500   0.1200   2.3400 C     1    CU   0.0000
 29    Cu  16.2200   1.7800   0.5200 C     1    CU   0.0000
 30    Cu  16.2600   1.8100   4.1700 C     1    CU   0.0000
 31    Cu  18.0500   0.1000   0.5200 C     1    CU   0.0000
 32    Cu  18.0700   0.0100   4.1000 C     1    CU   0.0000
 33    Cu  18.0500   1.8000   2.2800 C     1    CU   0.0000
 34    Cu  19.8800   0.0200   2.2900 C     1    CU   0.0000
 35    Cu  19.9000   1.7900   0.4900 C     1    CU   0.0000
 36    Cu  19.8900   1.8500   4.1100 C     1    CU   0.0000
 37    Cu  21.7400   0.0000   0.5500 C     1    CU   0.0000
 38    Cu  21.6900   0.0000   4.0400 C     1    CU   0.0000
 39    Cu  21.7200   1.8300   2.3100 C     1    CU   0.0000
 40    Cu  23.5500   0.0100   2.3400 C     1    CU   0.0000
 41    Cu  23.5600   1.8100   0.5500 C     1    CU   0.0000
 42    Cu  23.5000   1.8200   4.1600 C     1    CU   0.0000
 43    Cu  25.3600   0.0200   0.5500 C     1    CU   0.0000
 44    Cu  25.3100   0.0100   4.2200 C     1    CU   0.0000
 45    Cu  25.3400   1.8100   2.3700 C     1    CU   0.0000
 46    Cu  27.1300   0.0100   2.3900 C     1    CU   0.0000
 47    Cu  27.1500   1.8300   0.5700 C     1    CU   0.0000
 48    Cu  27.1300   1.8000   4.2400 C     1    CU   0.0000
 49    Cu  28.9200   0.0300   0.5700 C     1    CU   0.0000
 50    Cu  28.9300   0.0000   4.2400 C     1    CU   0.0000
 51    Cu  28.9200   1.8100   2.4000 C     1    CU   0.0000
 52    Cu  30.7000   0.0200   2.3900 C     1    CU   0.0000
 53    Cu  30.7000   1.8400   0.5900 C     1    CU   0.0000
 54    Cu  30.7200   1.8100   4.2700 C     1    CU   0.0000
 55    Cu  32.4600   0.0400   0.5600 C     1    CU   0.0000
 56    Cu  32.5200   0.1200   4.2100 C     1    CU   0.0000
 57    Cu  32.4900   1.8200   2.4100 C     1    CU   0.0000
 58    Cu  34.2900   0.0400   2.3200 C     1    CU   0.0000
 59    Cu  34.2400   1.8500   0.5500 C     1    CU   0.0000
 60    Cu  34.3300   1.8000   4.2000 C     1    CU   0.0000
 61    Cu  36.0600   0.0300   0.4900 C     1    CU   0.0000
 62    Cu  36.1500   0.0100   4.1000 C     1    CU   0.0000
 63    Cu  36.0900   1.8200   2.2900 C     1    CU   0.0000
 64    Cu  37.9200   0.0300   2.2400 C     1    CU   0.0000
 65    Cu  37.8700   1.8300   0.4600 C     1    CU   0.0000
 66    Cu  37.9500   1.8400   4.0400 C     1    CU   0.0000
 67    Cu  39.7400   0.1200   0.4500 C     1    CU   0.0000
 68    Cu  39.8000   0.0200   3.9500 C     1    CU   0.0000
 69    Cu  39.7300   1.8200   2.1800 C     1    CU   0.0000
 70    Cu  41.5900   0.1000   2.2000 C     1    CU   0.0000
 71    Cu  41.5900   1.7900   0.4400 C     1    CU   0.0000
 72    Cu  41.5600   1.8000   3.9300 C     1    CU   0.0000
 73    Cu   0.0800   3.6100   0.4700 C     1    CU   0.0000
 74    Cu   0.0100   3.6200   3.8900 C     1    CU   0.0000
 75    Cu   0.0400   5.4500   2.1700 C     1    CU   0.0000
 76    Cu   1.8900   3.5900   2.2400 C     1    CU   0.0000
 77    Cu   1.9300   5.4400   0.5000 C     1    CU   0.0000
 78    Cu   1.8100   5.3700   3.9500 C     1    CU   0.0000
 79    Cu   3.7400   3.6000   0.5500 C     1    CU   0.0000
 80    Cu   3.6400   3.6300   4.1900 C     1    CU   0.0000
 81    Cu   3.7100   5.4300   2.3300 C     1    CU   0.0000
 82    Cu   5.4800   3.6200   2.4000 C     1    CU   0.0000
 83    Cu   5.5100   5.4300   0.5700 C     1    CU   0.0000
 84    Cu   5.4800   5.4600   4.2200 C     1    CU   0.0000
 85    Cu   7.2700   3.6000   0.6000 C     1    CU   0.0000
 86    Cu   7.2500   3.6200   4.2100 C     1    CU   0.0000
 87    Cu   7.2800   5.4300   2.3700 C     1    CU   0.0000
 88    Cu   9.0700   3.5900   2.3900 C     1    CU   0.0000
 89    Cu   9.0800   5.4100   0.5800 C     1    CU   0.0000
 90    Cu   9.0900   5.4200   4.1300 C     1    CU   0.0000
 91    Cu  10.8500   3.5900   0.5700 C     1    CU   0.0000
 92    Cu  10.8700   3.6100   4.2400 C     1    CU   0.0000
 93    Cu  10.8800   5.4100   2.3700 C     1    CU   0.0000
 94    Cu  12.6500   3.6000   2.3800 C     1    CU   0.0000
 95    Cu  12.6400   5.4100   0.5500 C     1    CU   0.0000
 96    Cu  12.6600   5.4300   4.2000 C     1    CU   0.0000
 97    Cu  14.4100   3.5900   0.5300 C     1    CU   0.0000
 98    Cu  14.4600   3.6200   4.2200 C     1    CU   0.0000
 99    Cu  14.4400   5.4100   2.3500 C     1    CU   0.0000
100    Cu  16.2200   3.6100   2.3100 C     1    CU   0.0000
101    Cu  16.2100   5.4100   0.5000 C     1    CU   0.0000
102    Cu  16.2700   5.4100   4.1700 C     1    CU   0.0000
103    Cu  18.0400   3.6000   0.5000 C     1    CU   0.0000
104    Cu  18.0500   3.6000   4.0200 C     1    CU   0.0000
105    Cu  18.0400   5.4200   2.2700 C     1    CU   0.0000
106    Cu  19.9000   3.5900   2.2500 C     1    CU   0.0000
107    Cu  19.9100   5.4200   0.5200 C     1    CU   0.0000
108    Cu  19.8800   5.3600   3.9900 C     1    CU   0.0000
109    Cu  21.7500   3.6200   0.5100 C     1    CU   0.0000
110    Cu  21.7300   3.6500   4.1400 C     1    CU   0.0000
111    Cu  21.7500   5.4200   2.3000 C     1    CU   0.0000
112    Cu  23.5500   3.6200   2.3400 C     1    CU   0.0000
113    Cu  23.5700   5.4400   0.5300 C     1    CU   0.0000
114    Cu  23.6100   5.4400   4.1500 C     1    CU   0.0000
115    Cu  25.3600   3.6300   0.5600 C     1    CU   0.0000
116    Cu  25.3400   3.5900   4.1800 C     1    CU   0.0000
117    Cu  25.3500   5.4400   2.3500 C     1    CU   0.0000
118    Cu  27.1300   3.6200   2.3900 C     1    CU   0.0000
119    Cu  27.1600   5.4500   0.5900 C     1    CU   0.0000
120    Cu  27.1000   5.4600   4.1500 C     1    CU   0.0000
121    Cu  28.9300   3.6400   0.6100 C     1    CU   0.0000
122    Cu  28.9200   3.6200   4.2000 C     1    CU   0.0000
123    Cu  28.9300   5.4500   2.4100 C     1    CU   0.0000
124    Cu  30.7200   3.6300   2.4300 C     1    CU   0.0000
125    Cu  30.7100   5.4500   0.6200 C     1    CU   0.0000
126    Cu  30.7100   5.4400   4.2700 C     1    CU   0.0000
127    Cu  32.4700   3.6500   0.5900 C     1    CU   0.0000
128    Cu  32.5200   3.6200   4.2600 C     1    CU   0.0000
129    Cu  32.5000   5.4400   2.4300 C     1    CU   0.0000
130    Cu  34.2700   3.6300   2.3700 C     1    CU   0.0000
131    Cu  34.2600   5.4500   0.5800 C     1    CU   0.0000
132    Cu  34.3300   5.4300   4.2400 C     1    CU   0.0000
133    Cu  36.0300   3.6500   0.5200 C     1    CU   0.0000
134    Cu  36.1100   3.6100   4.0700 C     1    CU   0.0000
135    Cu  36.0800   5.4500   2.3300 C     1    CU   0.0000
136    Cu  37.8900   3.6300   2.2300 C     1    CU   0.0000
137    Cu  37.8600   5.4700   0.5100 C     1    CU   0.0000
138    Cu  37.9400   5.4100   4.0300 C     1    CU   0.0000
139    Cu  39.7000   3.6500   0.4500 C     1    CU   0.0000
140    Cu  39.7200   3.6300   3.9500 C     1    CU   0.0000
141    Cu  39.7200   5.4600   2.2000 C     1    CU   0.0000
142    Cu  41.5600   3.6100   2.1600 C     1    CU   0.0000
143    Cu  41.5700   5.4700   0.4600 C     1    CU   0.0000
144    Cu  41.5700   5.4300   3.8800 C     1    CU   0.0000
145    Cu   0.0600   7.3000   0.4800 C     1    CU   0.0000
146    Cu   0.0200   7.2100   4.0300 C     1    CU   0.0000
147    Cu   0.0400   9.0800   2.3000 C     1    CU   0.0000
148    Cu   1.8700   7.2600   2.2900 C     1    CU   0.0000
149    Cu   1.8900   9.0800   0.5300 C     1    CU   0.0000
150    Cu   1.8200   9.0300   4.1600 C     1    CU   0.0000
151    Cu   3.7100   7.2600   0.5500 C     1    CU   0.0000
152    Cu   3.6300   7.2200   4.1700 C     1    CU   0.0000
153    Cu   3.6800   9.0500   2.3600 C     1    CU   0.0000
154    Cu   5.4900   7.2500   2.3800 C     1    CU   0.0000
155    Cu   5.4900   9.0500   0.5500 C     1    CU   0.0000
156    Cu   5.4900   9.0300   4.2200 C     1    CU   0.0000
157    Cu   7.3000   7.2500   0.5600 C     1    CU   0.0000
158    Cu   7.3600   7.2700   4.1300 C     1    CU   0.0000
159    Cu   7.2800   9.0700   2.3500 C     1    CU   0.0000
160    Cu   9.1100   7.2600   2.3400 C     1    CU   0.0000
161    Cu   9.1000   9.0600   0.5500 C     1    CU   0.0000
162    Cu   9.1100   9.1200   4.1400 C     1    CU   0.0000
163    Cu  10.8800   7.2400   0.5600 C     1    CU   0.0000
164    Cu  10.8700   7.2500   4.1900 C     1    CU   0.0000
165    Cu  10.9000   9.0700   2.3600 C     1    CU   0.0000
166    Cu  12.6600   7.2400   2.3700 C     1    CU   0.0000
167    Cu  12.6600   9.0600   0.5600 C     1    CU   0.0000
168    Cu  12.6700   9.0600   4.2200 C     1    CU   0.0000
169    Cu  14.4300   7.2300   0.5400 C     1    CU   0.0000
170    Cu  14.4700   7.2300   4.1800 C     1    CU   0.0000
171    Cu  14.4500   9.0400   2.3600 C     1    CU   0.0000
172    Cu  16.2500   7.2100   2.3200 C     1    CU   0.0000
173    Cu  16.2500   9.0300   0.5300 C     1    CU   0.0000
174    Cu  16.2800   9.0100   4.1000 C     1    CU   0.0000
175    Cu  18.0700   7.2300   0.5000 C     1    CU   0.0000
176    Cu  18.0900   7.2000   4.1500 C     1    CU   0.0000
177    Cu  18.1000   9.0100   2.3200 C     1    CU   0.0000
178    Cu  19.9100   7.2300   2.3000 C     1    CU   0.0000
179    Cu  19.9200   9.0200   0.5100 C     1    CU   0.0000
180    Cu  19.9200   8.9900   4.1800 C     1    CU   0.0000
181    Cu  21.7400   7.2400   0.5200 C     1    CU   0.0000
182    Cu  21.7200   7.1800   4.1600 C     1    CU   0.0000
183    Cu  21.7200   9.0300   2.3500 C     1    CU   0.0000
184    Cu  23.5400   7.2500   2.3400 C     1    CU   0.0000
185    Cu  23.5600   9.0500   0.5400 C     1    CU   0.0000
186    Cu  23.5000   9.0400   4.2000 C     1    CU   0.0000
187    Cu  25.3800   7.2600   0.5700 C     1    CU   0.0000
188    Cu  25.3500   7.3200   4.1300 C     1    CU   0.0000
189    Cu  25.3500   9.0800   2.3600 C     1    CU   0.0000
190    Cu  27.1500   7.2800   2.3800 C     1    CU   0.0000
191    Cu  27.1700   9.0700   0.5800 C     1    CU   0.0000
192    Cu  27.1600   9.1000   4.2400 C     1    CU   0.0000
193    Cu  28.9500   7.2500   0.6100 C     1    CU   0.0000
194    Cu  28.9200   7.2500   4.2600 C     1    CU   0.0000
195    Cu  28.9400   9.0700   2.4000 C     1    CU   0.0000
196    Cu  30.7200   7.2400   2.4200 C     1    CU   0.0000
197    Cu  30.7300   9.0500   0.5900 C     1    CU   0.0000
198    Cu  30.7200   9.0600   4.1800 C     1    CU   0.0000
199    Cu  32.5000   7.2400   0.6100 C     1    CU   0.0000
200    Cu  32.5200   7.2500   4.2700 C     1    CU   0.0000
201    Cu  32.5200   9.0300   2.3800 C     1    CU   0.0000
202    Cu  34.3100   7.2300   2.4000 C     1    CU   0.0000
203    Cu  34.3100   9.0500   0.5900 C     1    CU   0.0000
204    Cu  34.3400   9.0300   4.1800 C     1    CU   0.0000
205    Cu  36.0700   7.2700   0.5700 C     1    CU   0.0000
206    Cu  36.1500   7.2300   4.2000 C     1    CU   0.0000
207    Cu  36.1300   9.0500   2.3800 C     1    CU   0.0000
208    Cu  37.9200   7.2700   2.3200 C     1    CU   0.0000
209    Cu  37.9100   9.0800   0.5300 C     1    CU   0.0000
210    Cu  37.9700   9.0300   4.2000 C     1    CU   0.0000
211    Cu  39.7200   7.3000   0.5000 C     1    CU   0.0000
212    Cu  39.8000   7.2400   4.0400 C     1    CU   0.0000
213    Cu  39.7500   9.0800   2.3200 C     1    CU   0.0000
214    Cu  41.5800   7.2900   2.2200 C     1    CU   0.0000
215    Cu  41.5800   9.1200   0.5100 C     1    CU   0.0000
216    Cu  41.6100   9.0400   4.0800 C     1    CU   0.0000
217    Cu   0.0500  10.8800   0.5300 C     1    CU   0.0000
218    Cu   0.0300  10.8600   4.1500 C     1    CU   0.0000
219    Cu   0.0300  12.6600   2.3500 C     1    CU   0.0000
220    Cu   1.8600  10.8600   2.3400 C     1    CU   0.0000
221    Cu   1.8700  12.6700   0.5300 C     1    CU   0.0000
222    Cu   1.8700  12.6600   4.1300 C     1    CU   0.0000
223    Cu   3.6900  10.8600   0.5300 C     1    CU   0.0000
224    Cu   3.6500  10.8400   4.2000 C     1    CU   0.0000
225    Cu   3.6700  12.6500   2.3300 C     1    CU   0.0000
226    Cu   5.4700  10.8500   2.3600 C     1    CU   0.0000
227    Cu   5.4800  12.6700   0.5300 C     1    CU   0.0000
228    Cu   5.4600  12.6500   4.2000 C     1    CU   0.0000
229    Cu   7.2900  10.8700   0.5400 C     1    CU   0.0000
230    Cu   7.2700  10.8700   4.1700 C     1    CU   0.0000
231    Cu   7.2500  12.6700   2.3400 C     1    CU   0.0000
232    Cu   9.0900  10.8700   2.3200 C     1    CU   0.0000
233    Cu   9.0900  12.7100   0.5800 C     1    CU   0.0000
234    Cu   9.1000  12.6800   4.0400 C     1    CU   0.0000
235    Cu  10.9000  10.9000   0.5600 C     1    CU   0.0000
236    Cu  10.9000  10.9100   4.1900 C     1    CU   0.0000
237    Cu  10.9300  12.6900   2.3500 C     1    CU   0.0000
238    Cu  12.7000  10.8700   2.3800 C     1    CU   0.0000
239    Cu  12.7100  12.6900   0.5600 C     1    CU   0.0000
240    Cu  12.7400  12.7000   4.2300 C     1    CU   0.0000
241    Cu  14.4700  10.8600   0.5500 C     1    CU   0.0000
242    Cu  14.5000  10.8400   4.2100 C     1    CU   0.0000
243    Cu  14.5100  12.6500   2.3700 C     1    CU   0.0000
244    Cu  16.2900  10.8200   2.3300 C     1    CU   0.0000
245    Cu  16.2900  12.6500   0.5500 C     1    CU   0.0000
246    Cu  16.3500  12.6000   4.1200 C     1    CU   0.0000
247    Cu  18.0900  10.8200   0.5200 C     1    CU   0.0000
248    Cu  18.1300  10.8100   4.1600 C     1    CU   0.0000
249    Cu  18.1200  12.6300   2.3100 C     1    CU   0.0000
250    Cu  19.9200  10.8100   2.3200 C     1    CU   0.0000
251    Cu  19.9300  12.6300   0.5100 C     1    CU   0.0000
252    Cu  19.9300  12.6600   4.0800 C     1    CU   0.0000
253    Cu  21.7500  10.8200   0.5200 C     1    CU   0.0000
254    Cu  21.7000  10.8400   4.1800 C     1    CU   0.0000
255    Cu  21.7400  12.6200   2.3000 C     1    CU   0.0000
256    Cu  23.5300  10.8400   2.3600 C     1    CU   0.0000
257    Cu  23.5700  12.6500   0.5400 C     1    CU   0.0000
258    Cu  23.5200  12.6500   4.1900 C     1    CU   0.0000
259    Cu  25.3700  10.8600   0.5600 C     1    CU   0.0000
260    Cu  25.3200  10.8600   4.1900 C     1    CU   0.0000
261    Cu  25.3500  12.6600   2.3800 C     1    CU   0.0000
262    Cu  27.1600  10.8800   2.3900 C     1    CU   0.0000
263    Cu  27.1700  12.6700   0.5800 C     1    CU   0.0000
264    Cu  27.1500  12.6600   4.2400 C     1    CU   0.0000
265    Cu  28.9600  10.8800   0.5800 C     1    CU   0.0000
266    Cu  28.9900  10.9100   4.1800 C     1    CU   0.0000
267    Cu  28.9700  12.6900   2.3900 C     1    CU   0.0000
268    Cu  30.7600  10.8700   2.3600 C     1    CU   0.0000
269    Cu  30.7600  12.6800   0.5700 C     1    CU   0.0000
270    Cu  30.8600  12.6700   4.1600 C     1    CU   0.0000
271    Cu  32.5400  10.8600   0.5600 C     1    CU   0.0000
272    Cu  32.5700  10.8000   4.1500 C     1    CU   0.0000
273    Cu  32.5800  12.6700   2.3500 C     1    CU   0.0000
274    Cu  34.3400  10.8500   2.3700 C     1    CU   0.0000
275    Cu  34.3400  12.6700   0.5500 C     1    CU   0.0000
276    Cu  34.3600  12.6600   4.1900 C     1    CU   0.0000
277    Cu  36.1200  10.8600   0.5600 C     1    CU   0.0000
278    Cu  36.1600  10.8600   4.1800 C     1    CU   0.0000
279    Cu  36.1400  12.6600   2.3600 C     1    CU   0.0000
280    Cu  37.9500  10.8500   2.3700 C     1    CU   0.0000
281    Cu  37.9400  12.6500   0.5700 C     1    CU   0.0000
282    Cu  37.9600  12.6600   4.1500 C     1    CU   0.0000
283    Cu  39.7400  10.8800   0.5500 C     1    CU   0.0000
284    Cu  39.7800  10.8400   4.2000 C     1    CU   0.0000
285    Cu  39.7800  12.6500   2.3700 C     1    CU   0.0000
286    Cu  41.5800  10.8800   2.3400 C     1    CU   0.0000
287    Cu  41.5900  12.6600   0.5500 C     1    CU   0.0000
288    Cu  41.6000  12.6500   4.2100 C     1    CU   0.0000
289    Cu   0.0300  14.4500   0.5400 C     1    CU   0.0000
290    Cu   0.0400  14.4500   4.1900 C     1    CU   0.0000
291    Cu   0.0100  16.2500   2.3400 C     1    CU   0.0000
292    Cu   1.8400  14.4600   2.3300 C     1    CU   0.0000
293    Cu   1.8500  16.2700   0.5500 C     1    CU   0.0000
294    Cu   1.8300  16.2700   4.1200 C     1    CU   0.0000
295    Cu   3.6800  14.4800   0.5400 C     1    CU   0.0000
296    Cu   3.6700  14.4600   4.1200 C     1    CU   0.0000
297    Cu   3.6600  16.2700   2.3400 C     1    CU   0.0000
298    Cu   5.4700  14.4700   2.3500 C     1    CU   0.0000
299    Cu   5.4800  16.3100   0.5700 C     1    CU   0.0000
300    Cu   5.4600  16.2600   4.2100 C     1    CU   0.0000
301    Cu   7.2800  14.5000   0.5600 C     1    CU   0.0000
302    Cu   7.2700  14.4500   4.2000 C     1    CU   0.0000
303    Cu   7.2600  16.2800   2.3900 C     1    CU   0.0000
304    Cu   9.0800  14.5100   2.3500 C     1    CU   0.0000
305    Cu   9.0800  16.3100   0.5800 C     1    CU   0.0000
306    Cu   9.0800  16.2600   4.2200 C     1    CU   0.0000
307    Cu  10.9000  14.5000   0.5800 C     1    CU   0.0000
308    Cu  10.8900  14.4700   4.2200 C     1    CU   0.0000
309    Cu  10.9000  16.2700   2.4000 C     1    CU   0.0000
310    Cu  12.7200  14.4700   2.3900 C     1    CU   0.0000
311    Cu  12.6900  16.2800   0.6000 C     1    CU   0.0000
312    Cu  12.7400  16.2300   4.2200 C     1    CU   0.0000
313    Cu  14.5100  14.4800   0.5700 C     1    CU   0.0000
314    Cu  14.6200  14.4600   4.1400 C     1    CU   0.0000
315    Cu  14.5100  16.2800   2.3600 C     1    CU   0.0000
316    Cu  16.3400  14.4600   2.3300 C     1    CU   0.0000
317    Cu  16.3000  16.2800   0.5400 C     1    CU   0.0000
318    Cu  16.3500  16.3200   4.1100 C     1    CU   0.0000
319    Cu  18.1100  14.4500   0.5200 C     1    CU   0.0000
320    Cu  18.1400  14.4600   4.1300 C     1    CU   0.0000
321    Cu  18.1200  16.2600   2.3000 C     1    CU   0.0000
322    Cu  19.9200  14.4500   2.2800 C     1    CU   0.0000
323    Cu  19.9400  16.2800   0.5300 C     1    CU   0.0000
324    Cu  19.9500  16.2500   4.0700 C     1    CU   0.0000
325    Cu  21.7600  14.4600   0.5300 C     1    CU   0.0000
326    Cu  21.7500  14.4500   4.0500 C     1    CU   0.0000
327    Cu  21.7600  16.2700   2.3000 C     1    CU   0.0000
328    Cu  23.5700  14.4500   2.3400 C     1    CU   0.0000
329    Cu  23.5900  16.2800   0.5700 C     1    CU   0.0000
330    Cu  23.5300  16.2500   4.1900 C     1    CU   0.0000
331    Cu  25.3900  14.4700   0.5800 C     1    CU   0.0000
332    Cu  25.3400  14.4600   4.2100 C     1    CU   0.0000
333    Cu  25.3600  16.2600   2.4000 C     1    CU   0.0000
334    Cu  27.1700  14.4600   2.4000 C     1    CU   0.0000
335    Cu  27.1700  16.2800   0.6000 C     1    CU   0.0000
336    Cu  27.1700  16.2500   4.1900 C     1    CU   0.0000
337    Cu  28.9600  14.4900   0.5800 C     1    CU   0.0000
338    Cu  29.0000  14.4400   4.2500 C     1    CU   0.0000
339    Cu  28.9700  16.2700   2.4100 C     1    CU   0.0000
340    Cu  30.7700  14.4900   2.3800 C     1    CU   0.0000
341    Cu  30.7500  16.3000   0.5900 C     1    CU   0.0000
342    Cu  30.7800  16.2800   4.2200 C     1    CU   0.0000
343    Cu  32.5500  14.4900   0.5600 C     1    CU   0.0000
344    Cu  32.6000  14.5200   4.1700 C     1    CU   0.0000
345    Cu  32.5700  16.2900   2.3600 C     1    CU   0.0000
346    Cu  34.3600  14.4800   2.3600 C     1    CU   0.0000
347    Cu  34.3600  16.2800   0.5400 C     1    CU   0.0000
348    Cu  34.3900  16.2900   4.2000 C     1    CU   0.0000
349    Cu  36.1500  14.4600   0.5500 C     1    CU   0.0000
350    Cu  36.1500  14.4700   4.1800 C     1    CU   0.0000
351    Cu  36.1700  16.2500   2.3400 C     1    CU   0.0000
352    Cu  37.9700  14.4500   2.3600 C     1    CU   0.0000
353    Cu  37.9700  16.2400   0.5500 C     1    CU   0.0000
354    Cu  37.9800  16.2400   4.1900 C     1    CU   0.0000
355    Cu  39.7700  14.4300   0.5400 C     1    CU   0.0000
356    Cu  39.7800  14.4400   4.2100 C     1    CU   0.0000
357    Cu  39.7800  16.2200   2.3400 C     1    CU   0.0000
358    Cu  41.5900  14.4400   2.3600 C     1    CU   0.0000
359    Cu  41.5800  16.2300   0.5300 C     1    CU   0.0000
360    Cu  41.5900  16.2500   4.1900 C     1    CU   0.0000
361    Cu   0.0300  18.0500   0.5300 C     1    CU   0.0000
362    Cu   0.0100  18.0600   4.1700 C     1    CU   0.0000
363    Cu   0.0100  19.8400   2.3100 C     1    CU   0.0000
364    Cu   1.8300  18.0700   2.3400 C     1    CU   0.0000
365    Cu   1.8700  19.8800   0.5700 C     1    CU   0.0000
366    Cu   1.8000  19.8700   4.1400 C     1    CU   0.0000
367    Cu   3.6800  18.1000   0.5800 C     1    CU   0.0000
368    Cu   3.6400  18.0400   4.1300 C     1    CU   0.0000
369    Cu   3.6600  19.8800   2.4000 C     1    CU   0.0000
370    Cu   5.4700  18.0900   2.4000 C     1    CU   0.0000
371    Cu   5.4800  19.9000   0.6100 C     1    CU   0.0000
372    Cu   5.4700  19.8900   4.2500 C     1    CU   0.0000
373    Cu   7.2800  18.1000   0.6100 C     1    CU   0.0000
374    Cu   7.2600  18.0700   4.2300 C     1    CU   0.0000
375    Cu   7.2700  19.8800   2.4200 C     1    CU   0.0000
376    Cu   9.0800  18.0600   2.4000 C     1    CU   0.0000
377    Cu   9.0800  19.8800   0.6300 C     1    CU   0.0000
378    Cu   9.1000  19.8300   4.1900 C     1    CU   0.0000
379    Cu  10.8800  18.0700   0.6100 C     1    CU   0.0000
380    Cu  10.9000  18.0400   4.2200 C     1    CU   0.0000
381    Cu  10.8900  19.8700   2.4100 C     1    CU   0.0000
382    Cu  12.6900  18.0700   2.4000 C     1    CU   0.0000
383    Cu  12.6400  19.8900   0.5800 C     1    CU   0.0000
384    Cu  12.6900  19.8900   4.2000 C     1    CU   0.0000
385    Cu  14.4600  18.0900   0.5600 C     1    CU   0.0000
386    Cu  14.5100  18.0800   4.1700 C     1    CU   0.0000
387    Cu  14.4500  19.9000   2.3400 C     1    CU   0.0000
388    Cu  16.2900  18.0900   2.3100 C     1    CU   0.0000
389    Cu  16.2700  19.9100   0.5500 C     1    CU   0.0000
390    Cu  16.2500  19.9000   4.0600 C     1    CU   0.0000
391    Cu  18.1100  18.1000   0.5500 C     1    CU   0.0000
392    Cu  18.1300  18.0600   4.0600 C     1    CU   0.0000
393    Cu  18.1000  19.9100   2.3300 C     1    CU   0.0000
394    Cu  19.9300  18.0800   2.3100 C     1    CU   0.0000
395    Cu  19.9300  19.8900   0.5500 C     1    CU   0.0000
396    Cu  19.9200  19.8800   4.1400 C     1    CU   0.0000
397    Cu  21.7700  18.0900   0.5600 C     1    CU   0.0000
398    Cu  21.7400  18.0600   4.1100 C     1    CU   0.0000
399    Cu  21.7500  19.8700   2.3400 C     1    CU   0.0000
400    Cu  23.5700  18.0700   2.3800 C     1    CU   0.0000
401    Cu  23.5800  19.8700   0.5900 C     1    CU   0.0000
402    Cu  23.5400  19.8600   4.2300 C     1    CU   0.0000
403    Cu  25.3800  18.0800   0.6200 C     1    CU   0.0000
404    Cu  25.3500  18.0400   4.2500 C     1    CU   0.0000
405    Cu  25.3600  19.8700   2.4300 C     1    CU   0.0000
406    Cu  27.1600  18.0800   2.4300 C     1    CU   0.0000
407    Cu  27.1600  19.8700   0.6300 C     1    CU   0.0000
408    Cu  27.1500  19.8800   4.2700 C     1    CU   0.0000
409    Cu  28.9500  18.0900   0.6000 C     1    CU   0.0000
410    Cu  28.9600  18.0700   4.2600 C     1    CU   0.0000
411    Cu  28.9600  19.8800   2.4300 C     1    CU   0.0000
412    Cu  30.7600  18.0900   2.4100 C     1    CU   0.0000
413    Cu  30.7400  19.8800   0.5900 C     1    CU   0.0000
414    Cu  30.7700  19.8900   4.2400 C     1    CU   0.0000
415    Cu  32.5500  18.1000   0.5700 C     1    CU   0.0000
416    Cu  32.6300  18.1100   4.1500 C     1    CU   0.0000
417    Cu  32.5700  19.9000   2.3800 C     1    CU   0.0000
418    Cu  34.3900  18.0800   2.3400 C     1    CU   0.0000
419    Cu  34.3700  19.8800   0.5500 C     1    CU   0.0000
420    Cu  34.4700  19.8800   4.1300 C     1    CU   0.0000
421    Cu  36.1800  18.0600   0.5400 C     1    CU   0.0000
422    Cu  36.2100  18.0300   4.1100 C     1    CU   0.0000
423    Cu  36.2000  19.8800   2.3200 C     1    CU   0.0000
424    Cu  37.9800  18.0500   2.3200 C     1    CU   0.0000
425    Cu  37.9800  19.8600   0.5000 C     1    CU   0.0000
426    Cu  37.9900  19.8800   4.1500 C     1    CU   0.0000
427    Cu  39.7800  18.0400   0.5300 C     1    CU   0.0000
428    Cu  39.7700  18.0300   4.1000 C     1    CU   0.0000
429    Cu  39.7700  19.8700   2.3100 C     1    CU   0.0000
430    Cu  41.5900  18.0400   2.3200 C     1    CU   0.0000
431    Cu  41.5900  19.8500   0.5300 C     1    CU   0.0000
432    Cu  41.5900  19.8600   4.1000 C     1    CU   0.0000
433    Cu   0.0500  21.6700   0.5600 C     1    CU   0.0000
434    Cu   0.1200  21.6500   4.0300 C     1    CU   0.0000
435    Cu   0.0100  23.4900   2.3100 C     1    CU   0.0000
436    Cu   1.8500  21.6700   2.3400 C     1    CU   0.0000
437    Cu   1.8700  23.4800   0.5800 C     1    CU   0.0000
438    Cu   1.8000  23.4500   4.1100 C     1    CU   0.0000
439    Cu   3.6900  21.6800   0.6100 C     1    CU   0.0000
440    Cu   3.6300  21.6800   4.2400 C     1    CU   0.0000
441    Cu   3.6600  23.4800   2.4000 C     1    CU   0.0000
442    Cu   5.4700  21.6900   2.4400 C     1    CU   0.0000
443    Cu   5.4800  23.4700   0.6200 C     1    CU   0.0000
444    Cu   5.4700  23.4900   4.2600 C     1    CU   0.0000
445    Cu   7.2900  21.6800   0.6300 C     1    CU   0.0000
446    Cu   7.3400  21.6900   4.1800 C     1    CU   0.0000
447    Cu   7.2700  23.4900   2.4100 C     1    CU   0.0000
448    Cu   9.0900  21.6900   2.4100 C     1    CU   0.0000
449    Cu   9.0600  23.5000   0.6100 C     1    CU   0.0000
450    Cu   9.0800  23.5400   4.2200 C     1    CU   0.0000
451    Cu  10.8500  21.6900   0.6100 C     1    CU   0.0000
452    Cu  10.8800  21.7000   4.2300 C     1    CU   0.0000
453    Cu  10.8500  23.5100   2.4000 C     1    CU   0.0000
454    Cu  12.6500  21.6900   2.3800 C     1    CU   0.0000
455    Cu  12.6300  23.5000   0.5900 C     1    CU   0.0000
456    Cu  12.6600  23.5200   4.1400 C     1    CU   0.0000
457    Cu  14.4300  21.7000   0.5500 C     1    CU   0.0000
458    Cu  14.4600  21.7100   4.1900 C     1    CU   0.0000
459    Cu  14.4600  23.4900   2.3500 C     1    CU   0.0000
460    Cu  16.2700  21.7000   2.3200 C     1    CU   0.0000
461    Cu  16.2600  23.4800   0.5400 C     1    CU   0.0000
462    Cu  16.2900  23.4700   4.1200 C     1    CU   0.0000
463    Cu  18.1000  21.6900   0.5500 C     1    CU   0.0000
464    Cu  18.1200  21.7100   4.1500 C     1    CU   0.0000
465    Cu  18.1100  23.4900   2.3300 C     1    CU   0.0000
466    Cu  19.9300  21.6800   2.3300 C     1    CU   0.0000
467    Cu  19.9400  23.4600   0.5400 C     1    CU   0.0000
468    Cu  20.0000  23.4900   4.1100 C     1    CU   0.0000
469    Cu  21.7700  21.6600   0.5500 C     1    CU   0.0000
470    Cu  21.7500  21.6400   4.1200 C     1    CU   0.0000
471    Cu  21.7600  23.4700   2.3100 C     1    CU   0.0000
472    Cu  23.5700  21.6700   2.3700 C     1    CU   0.0000
473    Cu  23.5700  23.4600   0.5500 C     1    CU   0.0000
474    Cu  23.5400  23.5100   4.1600 C     1    CU   0.0000
475    Cu  25.3700  21.6600   0.6000 C     1    CU   0.0000
476    Cu  25.3400  21.7000   4.2400 C     1    CU   0.0000
477    Cu  25.3400  23.4800   2.3500 C     1    CU   0.0000
478    Cu  27.1500  21.6700   2.4100 C     1    CU   0.0000
479    Cu  27.1600  23.4600   0.6000 C     1    CU   0.0000
480    Cu  27.1300  23.5200   4.1100 C     1    CU   0.0000
481    Cu  28.9500  21.6600   0.6100 C     1    CU   0.0000
482    Cu  28.9400  21.7000   4.2500 C     1    CU   0.0000
483    Cu  28.9700  23.4800   2.3900 C     1    CU   0.0000
484    Cu  30.7600  21.6800   2.4100 C     1    CU   0.0000
485    Cu  30.7500  23.4500   0.5700 C     1    CU   0.0000
486    Cu  30.7600  23.4900   4.2200 C     1    CU   0.0000
487    Cu  32.5500  21.6700   0.5600 C     1    CU   0.0000
488    Cu  32.6000  21.6700   4.2500 C     1    CU   0.0000
489    Cu  32.5600  23.4700   2.3900 C     1    CU   0.0000
490    Cu  34.3700  21.6900   2.3500 C     1    CU   0.0000
491    Cu  34.3400  23.4800   0.5300 C     1    CU   0.0000
492    Cu  34.3800  23.4900   4.2100 C     1    CU   0.0000
493    Cu  36.1600  21.6800   0.5200 C     1    CU   0.0000
494    Cu  36.2000  21.7200   4.1100 C     1    CU   0.0000
495    Cu  36.1600  23.5000   2.3100 C     1    CU   0.0000
496    Cu  37.9900  21.6700   2.2900 C     1    CU   0.0000
497    Cu  37.9800  23.4900   0.5100 C     1    CU   0.0000
498    Cu  38.0100  23.4900   4.0300 C     1    CU   0.0000
499    Cu  39.7900  21.6700   0.4900 C     1    CU   0.0000
500    Cu  39.7800  21.6800   4.1500 C     1    CU   0.0000
501    Cu  39.8100  23.4800   2.2700 C     1    CU   0.0000
502    Cu  41.5700  21.6700   2.3000 C     1    CU   0.0000
503    Cu  41.6200  23.4800   0.5000 C     1    CU   0.0000
504    Cu  41.5900  23.4700   4.1400 C     1    CU   0.0000
505    Cu   0.0600  25.3000   0.5300 C     1    CU   0.0000
506    Cu   0.1200  25.2900   4.1300 C     1    CU   0.0000
507    Cu   0.0300  27.1100   2.3200 C     1    CU   0.0000
508    Cu   1.8400  25.2900   2.3500 C     1    CU   0.0000
509    Cu   1.8600  27.1100   0.5400 C     1    CU   0.0000
510    Cu   1.8100  27.1000   4.1500 C     1    CU   0.0000
511    Cu   3.6700  25.2800   0.5900 C     1    CU   0.0000
512    Cu   3.6400  25.3100   4.2000 C     1    CU   0.0000
513    Cu   3.6200  27.1200   2.3400 C     1    CU   0.0000
514    Cu   5.4500  25.2900   2.3900 C     1    CU   0.0000
515    Cu   5.4700  27.1000   0.5900 C     1    CU   0.0000
516    Cu   5.4200  27.1900   4.0300 C     1    CU   0.0000
517    Cu   7.2700  25.2900   0.6000 C     1    CU   0.0000
518    Cu   7.2700  25.3200   4.1600 C     1    CU   0.0000
519    Cu   7.2800  27.1200   2.3600 C     1    CU   0.0000
520    Cu   9.0700  25.3200   2.4000 C     1    CU   0.0000
521    Cu   9.0600  27.1100   0.5900 C     1    CU   0.0000
522    Cu   9.0600  27.1400   4.2400 C     1    CU   0.0000
523    Cu  10.8400  25.3000   0.6000 C     1    CU   0.0000
524    Cu  10.8700  25.3400   4.2200 C     1    CU   0.0000
525    Cu  10.8600  27.1100   2.3800 C     1    CU   0.0000
526    Cu  12.6600  25.3200   2.3700 C     1    CU   0.0000
527    Cu  12.6400  27.0900   0.5600 C     1    CU   0.0000
528    Cu  12.7000  27.1100   4.1900 C     1    CU   0.0000
529    Cu  14.4500  25.2900   0.5600 C     1    CU   0.0000
530    Cu  14.4800  25.2900   4.1700 C     1    CU   0.0000
531    Cu  14.4800  27.1000   2.3400 C     1    CU   0.0000
532    Cu  16.2900  25.2800   2.3300 C     1    CU   0.0000
533    Cu  16.2700  27.0700   0.5200 C     1    CU   0.0000
534    Cu  16.3000  27.0600   4.1100 C     1    CU   0.0000
535    Cu  18.1000  25.2600   0.5100 C     1    CU   0.0000
536    Cu  18.1200  25.2600   4.1800 C     1    CU   0.0000
537    Cu  18.0900  27.0800   2.2900 C     1    CU   0.0000
538    Cu  19.9100  25.2800   2.3000 C     1    CU   0.0000
539    Cu  19.9100  27.0900   0.5100 C     1    CU   0.0000
540    Cu  19.8700  27.1000   4.0600 C     1    CU   0.0000
541    Cu  21.7500  25.2800   0.5400 C     1    CU   0.0000
542    Cu  21.7500  25.3000   4.0200 C     1    CU   0.0000
543    Cu  21.7300  27.1300   2.3000 C     1    CU   0.0000
544    Cu  23.5600  25.3100   2.3100 C     1    CU   0.0000
545    Cu  23.5700  27.1100   0.5200 C     1    CU   0.0000
546    Cu  23.5200  27.1200   4.1400 C     1    CU   0.0000
547    Cu  25.3800  25.2900   0.5500 C     1    CU   0.0000
548    Cu  25.3500  25.3100   4.0900 C     1    CU   0.0000
549    Cu  25.3500  27.1200   2.3300 C     1    CU   0.0000
550    Cu  27.1600  25.3200   2.3400 C     1    CU   0.0000
551    Cu  27.1700  27.1100   0.5500 C     1    CU   0.0000
552    Cu  27.1600  27.1300   4.2000 C     1    CU   0.0000
553    Cu  28.9600  25.2600   0.5700 C     1    CU   0.0000
554    Cu  28.9400  25.3000   4.2000 C     1    CU   0.0000
555    Cu  28.9600  27.0800   2.3300 C     1    CU   0.0000
556    Cu  30.7600  25.2600   2.3700 C     1    CU   0.0000
557    Cu  30.7600  27.0800   0.5500 C     1    CU   0.0000
558    Cu  30.7500  27.0700   4.1100 C     1    CU   0.0000
559    Cu  32.5400  25.2600   0.5500 C     1    CU   0.0000
560    Cu  32.5600  25.2900   4.2200 C     1    CU   0.0000
561    Cu  32.5700  27.0700   2.3300 C     1    CU   0.0000
562    Cu  34.3600  25.2800   2.3500 C     1    CU   0.0000
563    Cu  34.3400  27.0800   0.5200 C     1    CU   0.0000
564    Cu  34.3800  27.0800   4.1500 C     1    CU   0.0000
565    Cu  36.1500  25.2900   0.5000 C     1    CU   0.0000
566    Cu  36.1900  25.2900   4.1600 C     1    CU   0.0000
567    Cu  36.1600  27.0900   2.3100 C     1    CU   0.0000
568    Cu  37.9700  25.3200   2.2800 C     1    CU   0.0000
569    Cu  37.9700  27.1100   0.4900 C     1    CU   0.0000
570    Cu  37.9800  27.1100   4.1300 C     1    CU   0.0000
571    Cu  39.8000  25.3100   0.5000 C     1    CU   0.0000
572    Cu  39.8400  25.3100   4.0200 C     1    CU   0.0000
573    Cu  39.7900  27.1300   2.2900 C     1    CU   0.0000
574    Cu  41.6200  25.3100   2.2800 C     1    CU   0.0000
575    Cu  41.6100  27.1200   0.5000 C     1    CU   0.0000
576    Cu  41.5900  27.1200   4.1400 C     1    CU   0.0000
577    Cu   0.0500  28.9300   0.5300 C     1    CU   0.0000
578    Cu   0.0100  28.9300   4.1000 C     1    CU   0.0000
579    Cu   0.0200  30.7400   2.3300 C     1    CU   0.0000
580    Cu   1.8400  28.9300   2.3300 C     1    CU   0.0000
581    Cu   1.8600  30.7400   0.5300 C     1    CU   0.0000
582    Cu   1.8300  30.7300   4.1500 C     1    CU   0.0000
583    Cu   3.6600  28.9300   0.5400 C     1    CU   0.0000
584    Cu   3.6100  28.9300   4.1900 C     1    CU   0.0000
585    Cu   3.6500  30.7300   2.3400 C     1    CU   0.0000
586    Cu   5.4500  28.9700   2.3300 C     1    CU   0.0000
587    Cu   5.4900  30.7500   0.5500 C     1    CU   0.0000
588    Cu   5.4400  30.7200   4.2200 C     1    CU   0.0000
589    Cu   7.2700  28.9300   0.5800 C     1    CU   0.0000
590    Cu   7.2700  28.9400   4.1300 C     1    CU   0.0000
591    Cu   7.2700  30.7500   2.3900 C     1    CU   0.0000
592    Cu   9.0700  28.9300   2.3800 C     1    CU   0.0000
593    Cu   9.0700  30.7300   0.5800 C     1    CU   0.0000
594    Cu   9.1000  30.7400   4.2300 C     1    CU   0.0000
595    Cu  10.8500  28.9100   0.5800 C     1    CU   0.0000
596    Cu  10.9000  28.9100   4.1300 C     1    CU   0.0000
597    Cu  10.8800  30.7200   2.3600 C     1    CU   0.0000
598    Cu  12.6900  28.9000   2.3400 C     1    CU   0.0000
599    Cu  12.6500  30.7100   0.5400 C     1    CU   0.0000
600    Cu  12.7200  30.6800   4.1400 C     1    CU   0.0000
601    Cu  14.4600  28.8900   0.5200 C     1    CU   0.0000
602    Cu  14.5300  28.8900   4.1900 C     1    CU   0.0000
603    Cu  14.4900  30.6900   2.3100 C     1    CU   0.0000
604    Cu  16.2900  28.9000   2.3100 C     1    CU   0.0000
605    Cu  16.2800  30.7000   0.5000 C     1    CU   0.0000
606    Cu  16.3100  30.7300   4.1200 C     1    CU   0.0000
607    Cu  18.0900  28.8900   0.5100 C     1    CU   0.0000
608    Cu  18.1000  28.9200   4.1000 C     1    CU   0.0000
609    Cu  18.1000  30.7200   2.2900 C     1    CU   0.0000
610    Cu  19.9100  28.9200   2.2900 C     1    CU   0.0000
611    Cu  19.9200  30.7000   0.4800 C     1    CU   0.0000
612    Cu  19.9100  30.7200   4.1400 C     1    CU   0.0000
613    Cu  21.7400  28.9000   0.4900 C     1    CU   0.0000
614    Cu  21.7000  28.9000   4.1700 C     1    CU   0.0000
615    Cu  21.7300  30.6900   2.3000 C     1    CU   0.0000
616    Cu  23.5300  28.9100   2.3300 C     1    CU   0.0000
617    Cu  23.5700  30.7000   0.5200 C     1    CU   0.0000
618    Cu  23.5200  30.7000   4.1800 C     1    CU   0.0000
619    Cu  25.3700  28.9200   0.5400 C     1    CU   0.0000
620    Cu  25.3300  28.9100   4.1300 C     1    CU   0.0000
621    Cu  25.3600  30.7100   2.3500 C     1    CU   0.0000
622    Cu  27.1600  28.9100   2.3500 C     1    CU   0.0000
623    Cu  27.1800  30.7200   0.5600 C     1    CU   0.0000
624    Cu  27.1700  30.6900   4.2100 C     1    CU   0.0000
625    Cu  28.9800  28.9100   0.5700 C     1    CU   0.0000
626    Cu  29.0200  28.9100   4.0300 C     1    CU   0.0000
627    Cu  28.9800  30.7400   2.3600 C     1    CU   0.0000
628    Cu  30.8000  28.9100   2.3100 C     1    CU   0.0000
629    Cu  30.7600  30.7400   0.5500 C     1    CU   0.0000
630    Cu  30.8500  30.7000   4.1500 C     1    CU   0.0000
631    Cu  32.5600  28.9000   0.5200 C     1    CU   0.0000
632    Cu  32.5900  28.8500   4.1200 C     1    CU   0.0000
633    Cu  32.5700  30.7300   2.3300 C     1    CU   0.0000
634    Cu  34.3600  28.9000   2.3100 C     1    CU   0.0000
635    Cu  34.3500  30.7300   0.5200 C     1    CU   0.0000
636    Cu  34.3600  30.7100   4.1300 C     1    CU   0.0000
637    Cu  36.1500  28.9100   0.5100 C     1    CU   0.0000
638    Cu  36.1700  28.9100   4.1100 C     1    CU   0.0000
639    Cu  36.1600  30.7200   2.3100 C     1    CU   0.0000
640    Cu  37.9700  28.9100   2.3000 C     1    CU   0.0000
641    Cu  37.9700  30.7300   0.5300 C     1    CU   0.0000
642    Cu  37.9600  30.7000   4.1000 C     1    CU   0.0000
643    Cu  39.7900  28.9400   0.5100 C     1    CU   0.0000
644    Cu  39.7800  28.9200   4.1600 C     1    CU   0.0000
645    Cu  39.7800  30.7200   2.3400 C     1    CU   0.0000
646    Cu  41.5900  28.9300   2.3200 C     1    CU   0.0000
647    Cu  41.6000  30.7300   0.5300 C     1    CU   0.0000
648    Cu  41.5900  30.7300   4.1800 C     1    CU   0.0000
649    Cu   0.0300  32.5300   0.5300 C     1    CU   0.0000
650    Cu   0.0300  32.5400   4.1500 C     1    CU   0.0000
651    Cu   0.0100  34.3300   2.3200 C     1    CU   0.0000
652    Cu   1.8400  32.5300   2.3200 C     1    CU   0.0000
653    Cu   1.8600  34.3300   0.5400 C     1    CU   0.0000
654    Cu   1.8100  34.3600   4.0700 C     1    CU   0.0000
655    Cu   3.6800  32.5400   0.5500 C     1    CU   0.0000
656    Cu   3.6400  32.5300   4.1300 C     1    CU   0.0000
657    Cu   3.6700  34.3400   2.3500 C     1    CU   0.0000
658    Cu   5.4700  32.5300   2.3800 C     1    CU   0.0000
659    Cu   5.5000  34.3500   0.5800 C     1    CU   0.0000
660    Cu   5.4400  34.3300   4.2300 C     1    CU   0.0000
661    Cu   7.2900  32.5500   0.5900 C     1    CU   0.0000
662    Cu   7.2600  32.5300   4.2400 C     1    CU   0.0000
663    Cu   7.2700  34.3400   2.4200 C     1    CU   0.0000
664    Cu   9.0800  32.5300   2.4000 C     1    CU   0.0000
665    Cu   9.0700  34.3500   0.6000 C     1    CU   0.0000
666    Cu   9.1100  34.3100   4.2300 C     1    CU   0.0000
667    Cu  10.8500  32.5400   0.5700 C     1    CU   0.0000
668    Cu  10.9600  32.5200   4.1500 C     1    CU   0.0000
669    Cu  10.8800  34.3500   2.3800 C     1    CU   0.0000
670    Cu  12.6800  32.5300   2.3200 C     1    CU   0.0000
671    Cu  12.6500  34.3600   0.5500 C     1    CU   0.0000
672    Cu  12.7200  34.3600   4.1500 C     1    CU   0.0000
673    Cu  14.4600  32.5200   0.5200 C     1    CU   0.0000
674    Cu  14.4900  32.5200   4.0600 C     1    CU   0.0000
675    Cu  14.4800  34.3500   2.3000 C     1    CU   0.0000
676    Cu  16.3000  32.5100   2.2800 C     1    CU   0.0000
677    Cu  16.2700  34.3500   0.4900 C     1    CU   0.0000
678    Cu  16.3300  34.3300   4.0400 C     1    CU   0.0000
679    Cu  18.1000  32.5200   0.4700 C     1    CU   0.0000
680    Cu  18.1300  32.5500   4.1200 C     1    CU   0.0000
681    Cu  18.0900  34.3300   2.2300 C     1    CU   0.0000
682    Cu  19.9200  32.5000   2.2600 C     1    CU   0.0000
683    Cu  19.9600  34.3500   0.5100 C     1    CU   0.0000
684    Cu  19.9200  34.3900   3.9100 C     1    CU   0.0000
685    Cu  21.7600  32.5100   0.5100 C     1    CU   0.0000
686    Cu  21.7300  32.5100   4.0400 C     1    CU   0.0000
687    Cu  21.7900  34.3400   2.2600 C     1    CU   0.0000
688    Cu  23.5700  32.4900   2.3100 C     1    CU   0.0000
689    Cu  23.6000  34.3300   0.5200 C     1    CU   0.0000
690    Cu  23.5500  34.2700   4.1200 C     1    CU   0.0000
691    Cu  25.3900  32.5100   0.5400 C     1    CU   0.0000
692    Cu  25.3500  32.4900   4.2000 C     1    CU   0.0000
693    Cu  25.3600  34.3200   2.3600 C     1    CU   0.0000
694    Cu  27.1600  32.5100   2.3900 C     1    CU   0.0000
695    Cu  27.1600  34.3300   0.5700 C     1    CU   0.0000
696    Cu  27.1500  34.3200   4.1900 C     1    CU   0.0000
697    Cu  28.9500  32.5400   0.5700 C     1    CU   0.0000
698    Cu  28.9800  32.5000   4.2400 C     1    CU   0.0000
699    Cu  28.9500  34.3300   2.4000 C     1    CU   0.0000
700    Cu  30.7600  32.5400   2.3800 C     1    CU   0.0000
701    Cu  30.7200  34.3500   0.5700 C     1    CU   0.0000
702    Cu  30.7600  34.3600   4.2200 C     1    CU   0.0000
703    Cu  32.5400  32.5500   0.5400 C     1    CU   0.0000
704    Cu  32.5900  32.5800   4.1400 C     1    CU   0.0000
705    Cu  32.5400  34.3500   2.3400 C     1    CU   0.0000
706    Cu  34.3600  32.5300   2.3200 C     1    CU   0.0000
707    Cu  34.3500  34.3400   0.5400 C     1    CU   0.0000
708    Cu  34.3900  34.3400   4.1000 C     1    CU   0.0000
709    Cu  36.1600  32.5300   0.5300 C     1    CU   0.0000
710    Cu  36.1700  32.5200   4.1600 C     1    CU   0.0000
711    Cu  36.1800  34.3200   2.3100 C     1    CU   0.0000
712    Cu  37.9800  32.5200   2.3400 C     1    CU   0.0000
713    Cu  37.9900  34.3200   0.5300 C     1    CU   0.0000
714    Cu  37.9700  34.3400   4.1600 C     1    CU   0.0000
715    Cu  39.7800  32.5200   0.5400 C     1    CU   0.0000
716    Cu  39.7600  32.5100   4.1900 C     1    CU   0.0000
717    Cu  39.7900  34.3100   2.3400 C     1    CU   0.0000
718    Cu  41.5800  32.5200   2.3500 C     1    CU   0.0000
719    Cu  41.5900  34.3100   0.5300 C     1    CU   0.0000
720    Cu  41.5800  34.3300   4.1800 C     1    CU   0.0000
721    Cu   0.0300  36.1200   0.5200 C     1    CU   0.0000
722    Cu   0.0000  36.1400   4.1500 C     1    CU   0.0000
723    Cu   0.0100  37.9400   2.2800 C     1    CU   0.0000
724    Cu   1.8300  36.1400   2.3100 C     1    CU   0.0000
725    Cu   1.8700  37.9500   0.5400 C     1    CU   0.0000
726    Cu   1.7700  37.9400   4.0800 C     1    CU   0.0000
727    Cu   3.6900  36.1500   0.5600 C     1    CU   0.0000
728    Cu   3.6200  36.1300   4.1700 C     1    CU   0.0000
729    Cu   3.6600  37.9400   2.3700 C     1    CU   0.0000
730    Cu   5.4700  36.1400   2.4000 C     1    CU   0.0000
731    Cu   5.4900  37.9500   0.6000 C     1    CU   0.0000
732    Cu   5.4300  37.9400   4.2400 C     1    CU   0.0000
733    Cu   7.2800  36.1500   0.6100 C     1    CU   0.0000
734    Cu   7.2600  36.1300   4.2600 C     1    CU   0.0000
735    Cu   7.2600  37.9500   2.4300 C     1    CU   0.0000
736    Cu   9.0600  36.1500   2.4200 C     1    CU   0.0000
737    Cu   9.0500  37.9600   0.6000 C     1    CU   0.0000
738    Cu   9.0600  37.9400   4.2600 C     1    CU   0.0000
739    Cu  10.8400  36.1600   0.5800 C     1    CU   0.0000
740    Cu  10.8800  36.1400   4.2200 C     1    CU   0.0000
741    Cu  10.8400  37.9600   2.4000 C     1    CU   0.0000
742    Cu  12.6600  36.1600   2.3600 C     1    CU   0.0000
743    Cu  12.6300  37.9800   0.5700 C     1    CU   0.0000
744    Cu  12.6800  37.9700   4.1600 C     1    CU   0.0000
745    Cu  14.4400  36.1800   0.5300 C     1    CU   0.0000
746    Cu  14.5100  36.1500   4.1400 C     1    CU   0.0000
747    Cu  14.4700  37.9700   2.3400 C     1    CU   0.0000
748    Cu  16.2800  36.1600   2.2800 C     1    CU   0.0000
749    Cu  16.2700  37.9900   0.5300 C     1    CU   0.0000
750    Cu  16.3100  37.9600   4.1000 C     1    CU   0.0000
751    Cu  18.1200  36.1800   0.5100 C     1    CU   0.0000
752    Cu  18.1500  36.1500   4.0000 C     1    CU   0.0000
753    Cu  18.1200  37.9800   2.2900 C     1    CU   0.0000
754    Cu  19.9700  36.2000   2.2500 C     1    CU   0.0000
755    Cu  19.9500  38.0000   0.5000 C     1    CU   0.0000
756    Cu  19.9500  37.9300   4.1600 C     1    CU   0.0000
757    Cu  21.8000  36.1800   0.5000 C     1    CU   0.0000
758    Cu  21.8100  36.1200   4.1100 C     1    CU   0.0000
759    Cu  21.7700  37.9800   2.3300 C     1    CU   0.0000
760    Cu  23.5800  36.1500   2.3300 C     1    CU   0.0000
761    Cu  23.5900  37.9800   0.5500 C     1    CU   0.0000
762    Cu  23.5500  38.0000   4.1400 C     1    CU   0.0000
763    Cu  25.3800  36.1500   0.5600 C     1    CU   0.0000
764    Cu  25.3400  36.1300   4.1900 C     1    CU   0.0000
765    Cu  25.3600  37.9700   2.3700 C     1    CU   0.0000
766    Cu  27.1500  36.1500   2.3900 C     1    CU   0.0000
767    Cu  27.1400  37.9600   0.5600 C     1    CU   0.0000
768    Cu  27.1200  37.9600   4.2300 C     1    CU   0.0000
769    Cu  28.9200  36.1400   0.5700 C     1    CU   0.0000
770    Cu  28.9400  36.1600   4.2300 C     1    CU   0.0000
771    Cu  28.9100  37.9600   2.3800 C     1    CU   0.0000
772    Cu  30.7200  36.1500   2.3700 C     1    CU   0.0000
773    Cu  30.7000  37.9500   0.5600 C     1    CU   0.0000
774    Cu  30.7500  37.9900   4.1400 C     1    CU   0.0000
775    Cu  32.5100  36.1500   0.5500 C     1    CU   0.0000
776    Cu  32.5800  36.1600   4.1200 C     1    CU   0.0000
777    Cu  32.5300  37.9600   2.3200 C     1    CU   0.0000
778    Cu  34.3500  36.1500   2.3000 C     1    CU   0.0000
779    Cu  34.3200  37.9500   0.5200 C     1    CU   0.0000
780    Cu  34.3700  37.9800   4.0900 C     1    CU   0.0000
781    Cu  36.1700  36.1300   0.5300 C     1    CU   0.0000
782    Cu  36.2200  36.1700   4.0200 C     1    CU   0.0000
783    Cu  36.1600  37.9700   2.2600 C     1    CU   0.0000
784    Cu  38.0100  36.1300   2.2800 C     1    CU   0.0000
785    Cu  37.9800  37.9400   0.5000 C     1    CU   0.0000
786    Cu  38.0200  37.9800   4.0100 C     1    CU   0.0000
787    Cu  39.8100  36.1200   0.5100 C     1    CU   0.0000
788    Cu  39.7800  36.1400   4.1300 C     1    CU   0.0000
789    Cu  39.8100  37.9500   2.2700 C     1    CU   0.0000
790    Cu  41.5900  36.1200   2.3200 C     1    CU   0.0000
791    Cu  41.6100  37.9400   0.5000 C     1    CU   0.0000
792    Cu  41.5900  37.9600   4.0900 C     1    CU   0.0000
793    Cu   0.0600  39.7500   0.5100 C     1    CU   0.0000
794    Cu   0.1200  39.7500   4.0800 C     1    CU   0.0000
795    Cu   0.0300  41.5600   2.2900 C     1    CU   0.0000
796    Cu   1.8400  39.7600   2.3200 C     1    CU   0.0000
797    Cu   1.9000  41.5500   0.5500 C     1    CU   0.0000
798    Cu   1.7900  41.5700   4.1400 C     1    CU   0.0000
799    Cu   3.6900  39.7500   0.5900 C     1    CU   0.0000
800    Cu   3.6000  39.7600   4.1800 C     1    CU   0.0000
801    Cu   3.6600  41.5500   2.3800 C     1    CU   0.0000
802    Cu   5.4600  39.7500   2.4200 C     1    CU   0.0000
803    Cu   5.4900  41.5500   0.6100 C     1    CU   0.0000
804    Cu   5.4200  41.5600   4.2600 C     1    CU   0.0000
805    Cu   7.2600  39.7600   0.6100 C     1    CU   0.0000
806    Cu   7.2400  39.7500   4.2700 C     1    CU   0.0000
807    Cu   7.2600  41.5600   2.4400 C     1    CU   0.0000
808    Cu   9.0500  39.7600   2.4300 C     1    CU   0.0000
809    Cu   9.0400  41.5600   0.6100 C     1    CU   0.0000
810    Cu   9.0500  41.5600   4.2700 C     1    CU   0.0000
811    Cu  10.8300  39.7700   0.5900 C     1    CU   0.0000
812    Cu  10.8600  39.7500   4.2500 C     1    CU   0.0000
813    Cu  10.8400  41.5700   2.4200 C     1    CU   0.0000
814    Cu  12.6500  39.7800   2.3900 C     1    CU   0.0000
815    Cu  12.6200  41.5600   0.5800 C     1    CU   0.0000
816    Cu  12.6700  41.5600   4.2500 C     1    CU   0.0000
817    Cu  14.4300  39.7700   0.5500 C     1    CU   0.0000
818    Cu  14.4900  39.7600   4.2000 C     1    CU   0.0000
819    Cu  14.4500  41.5600   2.3800 C     1    CU   0.0000
820    Cu  16.2700  39.7700   2.3300 C     1    CU   0.0000
821    Cu  16.2400  41.5600   0.5500 C     1    CU   0.0000
822    Cu  16.3000  41.5500   4.1900 C     1    CU   0.0000
823    Cu  18.0900  39.7800   0.5300 C     1    CU   0.0000
824    Cu  18.1100  39.7300   4.1000 C     1    CU   0.0000
825    Cu  18.0700  41.5700   2.3200 C     1    CU   0.0000
826    Cu  19.9300  39.7500   2.3200 C     1    CU   0.0000
827    Cu  19.9200  41.5700   0.5400 C     1    CU   0.0000
828    Cu  19.9000  41.5500   4.0600 C     1    CU   0.0000
829    Cu  21.7700  39.7800   0.5300 C     1    CU   0.0000
830    Cu  21.7200  39.7700   4.1900 C     1    CU   0.0000
831    Cu  21.7400  41.5600   2.3200 C     1    CU   0.0000
832    Cu  23.5500  39.7900   2.3600 C     1    CU   0.0000
833    Cu  23.5700  41.5900   0.5400 C     1    CU   0.0000
834    Cu  23.5000  41.5900   4.2100 C     1    CU   0.0000
835    Cu  25.3700  39.7900   0.5500 C     1    CU   0.0000
836    Cu  25.3300  39.7900   4.2200 C     1    CU   0.0000
837    Cu  25.3400  41.5900   2.3800 C     1    CU   0.0000
838    Cu  27.1300  39.7800   2.3900 C     1    CU   0.0000
839    Cu  27.1400  41.5900   0.5600 C     1    CU   0.0000
840    Cu  27.1300  41.5900   4.2300 C     1    CU   0.0000
841    Cu  28.9100  39.7700   0.5600 C     1    CU   0.0000
842    Cu  28.9300  39.7600   4.2200 C     1    CU   0.0000
843    Cu  28.9100  41.5900   2.3800 C     1    CU   0.0000
844    Cu  30.7000  39.7800   2.3400 C     1    CU   0.0000
845    Cu  30.6800  41.5900   0.5500 C     1    CU   0.0000
846    Cu  30.7200  41.5600   4.1900 C     1    CU   0.0000
847    Cu  32.4800  39.7700   0.5300 C     1    CU   0.0000
848    Cu  32.5400  39.7900   4.0700 C     1    CU   0.0000
849    Cu  32.4900  41.6000   2.3200 C     1    CU   0.0000
850    Cu  34.3300  39.7800   2.2800 C     1    CU   0.0000
851    Cu  34.2700  41.6000   0.5200 C     1    CU   0.0000
852    Cu  34.3400  41.6100   4.0600 C     1    CU   0.0000
853    Cu  36.1200  39.7800   0.5000 C     1    CU   0.0000
854    Cu  36.2000  39.7900   4.0000 C     1    CU   0.0000
855    Cu  36.1200  41.6000   2.2500 C     1    CU   0.0000
856    Cu  37.9900  39.7700   2.2300 C     1    CU   0.0000
857    Cu  37.9300  41.5900   0.4700 C     1    CU   0.0000
858    Cu  37.9800  41.5800   3.9900 C     1    CU   0.0000
859    Cu  39.7900  39.7500   0.4600 C     1    CU   0.0000
860    Cu  39.7800  39.7900   4.0900 C     1    CU   0.0000
861    Cu  39.7900  41.5700   2.2200 C     1    CU   0.0000
862    Cu  41.5900  39.7700   2.2700 C     1    CU   0.0000
863    Cu  41.6200  41.5500   0.4500 C     1    CU   0.0000
864    Cu  41.5700  41.5800   4.1100 C     1    CU   0.0000
865    Cu   0.0200   0.1100  79.4600 C     1    CU   0.0000
866    Cu   0.0600   0.1100  83.0500 C     1    CU   0.0000
867    Cu   0.1000   1.7900  81.2500 C     1    CU   0.0000
868    Cu   1.7800   0.1000  81.3300 C     1    CU   0.0000
869    Cu   1.8600   1.7900  79.5500 C     1    CU   0.0000
870    Cu   1.7300   1.7900  83.1000 C     1    CU   0.0000
871    Cu   3.6100   0.0900  79.6100 C     1    CU   0.0000
872    Cu   3.5700   0.1000  83.1600 C     1    CU   0.0000
873    Cu   3.6000   1.7900  81.3900 C     1    CU   0.0000
874    Cu   5.4200   0.1000  81.4200 C     1    CU   0.0000
875    Cu   5.4100   1.7400  79.6600 C     1    CU   0.0000
876    Cu   5.4200   1.8200  83.1600 C     1    CU   0.0000
877    Cu   7.2000   0.1200  79.5800 C     1    CU   0.0000
878    Cu   7.2500   0.0000  83.1600 C     1    CU   0.0000
879    Cu   7.2500   1.8100  81.3600 C     1    CU   0.0000
880    Cu   9.0500   0.0100  81.3200 C     1    CU   0.0000
881    Cu   9.0200   1.8100  79.4700 C     1    CU   0.0000
882    Cu   9.0600   1.8200  83.1400 C     1    CU   0.0000
883    Cu  10.8200   0.0100  79.4500 C     1    CU   0.0000
884    Cu  10.8600   0.0300  83.1200 C     1    CU   0.0000
885    Cu  10.8500   1.8200  81.2900 C     1    CU   0.0000
886    Cu  12.6400   0.0300  81.2900 C     1    CU   0.0000
887    Cu  12.6500   1.8100  79.4300 C     1    CU   0.0000
888    Cu  12.6700   1.8300  83.1000 C     1    CU   0.0000
889    Cu  14.4600   0.0000  79.4300 C     1    CU   0.0000
890    Cu  14.4800   0.0500  83.1100 C     1    CU   0.0000
891    Cu  14.4700   1.8200  81.2500 C     1    CU   0.0000
892    Cu  16.2800   0.0300  81.2700 C     1    CU   0.0000
893    Cu  16.2700   1.8000  79.4000 C     1    CU   0.0000
894    Cu  16.2900   1.8400  83.0700 C     1    CU   0.0000
895    Cu  18.1000   0.0200  79.4500 C     1    CU   0.0000
896    Cu  18.0900   0.0300  83.0700 C     1    CU   0.0000
897    Cu  18.0700   1.8200  81.2600 C     1    CU   0.0000
898    Cu  19.9000   0.1100  81.2800 C     1    CU   0.0000
899    Cu  19.9200   1.8100  79.5600 C     1    CU   0.0000
900    Cu  19.8900   1.8300  83.0400 C     1    CU   0.0000
901    Cu  21.7000   0.1200  79.4400 C     1    CU   0.0000
902    Cu  21.6900   0.1200  83.0900 C     1    CU   0.0000
903    Cu  21.7200   1.8000  81.2900 C     1    CU   0.0000
904    Cu  23.4900   0.1200  81.2800 C     1    CU   0.0000
905    Cu  23.4900   1.8200  79.4300 C     1    CU   0.0000
906    Cu  23.4800   1.8000  83.1000 C     1    CU   0.0000
907    Cu  25.2800   0.1200  79.4700 C     1    CU   0.0000
908    Cu  25.2800   0.1000  83.0900 C     1    CU   0.0000
909    Cu  25.2800   1.8000  81.2800 C     1    CU   0.0000
910    Cu  27.0900   0.1100  81.2800 C     1    CU   0.0000
911    Cu  27.1000   1.8000  79.4500 C     1    CU   0.0000
912    Cu  27.0700   1.7600  83.1100 C     1    CU   0.0000
913    Cu  28.9200   0.1200  79.4500 C     1    CU   0.0000
914    Cu  28.8900   0.0900  83.1100 C     1    CU   0.0000
915    Cu  28.9000   1.7700  81.3100 C     1    CU   0.0000
916    Cu  30.7200   0.1100  81.3100 C     1    CU   0.0000
917    Cu  30.7400   1.7800  79.5400 C     1    CU   0.0000
918    Cu  30.7200   1.7500  83.1300 C     1    CU   0.0000
919    Cu  32.5500   0.1200  79.4600 C     1    CU   0.0000
920    Cu  32.5600   0.1000  83.1200 C     1    CU   0.0000
921    Cu  32.5500   1.7700  81.3400 C     1    CU   0.0000
922    Cu  34.3700   0.1100  81.2900 C     1    CU   0.0000
923    Cu  34.3600   1.8100  79.5000 C     1    CU   0.0000
924    Cu  34.4000   1.7700  83.1100 C     1    CU   0.0000
925    Cu  36.1800   0.0000  79.4800 C     1    CU   0.0000
926    Cu  36.2200   0.1000  83.0600 C     1    CU   0.0000
927    Cu  36.1700   1.7900  81.3100 C     1    CU   0.0000
928    Cu  37.9900   0.1000  81.2400 C     1    CU   0.0000
929    Cu  37.9600   1.8200  79.5400 C     1    CU   0.0000
930    Cu  38.0200   1.7900  83.0200 C     1    CU   0.0000
931    Cu  39.7500   0.0000  79.3700 C     1    CU   0.0000
932    Cu  39.7800   0.1100  83.0100 C     1    CU   0.0000
933    Cu  39.8000   1.8000  81.2200 C     1    CU   0.0000
934    Cu  41.5600   0.1100  81.2000 C     1    CU   0.0000
935    Cu  41.5800   1.8100  79.3800 C     1    CU   0.0000
936    Cu  41.5500   1.7900  83.0100 C     1    CU   0.0000
937    Cu   0.0300   3.6400  79.4900 C     1    CU   0.0000
938    Cu   0.0700   3.6100  83.0400 C     1    CU   0.0000
939    Cu   0.0800   5.4200  81.3000 C     1    CU   0.0000
940    Cu   1.8000   3.5800  81.3500 C     1    CU   0.0000
941    Cu   1.8200   5.4000  79.6800 C     1    CU   0.0000
942    Cu   1.7700   5.4300  83.0700 C     1    CU   0.0000
943    Cu   3.6200   3.6000  79.5400 C     1    CU   0.0000
944    Cu   3.5900   3.6200  83.1300 C     1    CU   0.0000
945    Cu   3.6500   5.4300  81.3400 C     1    CU   0.0000
946    Cu   5.4300   3.6200  81.3500 C     1    CU   0.0000
947    Cu   5.4200   5.4100  79.4600 C     1    CU   0.0000
948    Cu   5.4200   5.4300  83.1300 C     1    CU   0.0000
949    Cu   7.2100   3.6000  79.4900 C     1    CU   0.0000
950    Cu   7.2300   3.6200  83.1400 C     1    CU   0.0000
951    Cu   7.2200   5.4100  81.3200 C     1    CU   0.0000
952    Cu   9.0400   3.6000  81.3200 C     1    CU   0.0000
953    Cu   9.0600   5.3900  79.5700 C     1    CU   0.0000
954    Cu   9.0400   5.4200  83.1200 C     1    CU   0.0000
955    Cu  10.8500   3.6100  79.4700 C     1    CU   0.0000
956    Cu  10.8700   3.6300  83.1100 C     1    CU   0.0000
957    Cu  10.8700   5.4200  81.3200 C     1    CU   0.0000
958    Cu  12.6700   3.6100  81.2800 C     1    CU   0.0000
959    Cu  12.6700   5.4300  79.5300 C     1    CU   0.0000
960    Cu  12.7000   5.4200  83.0900 C     1    CU   0.0000
961    Cu  14.4600   3.6200  79.4100 C     1    CU   0.0000
962    Cu  14.5000   3.6200  83.0700 C     1    CU   0.0000
963    Cu  14.5000   5.4200  81.2600 C     1    CU   0.0000
964    Cu  16.2800   3.6200  81.2300 C     1    CU   0.0000
965    Cu  16.2800   5.4200  79.3900 C     1    CU   0.0000
966    Cu  16.3000   5.4200  83.0400 C     1    CU   0.0000
967    Cu  18.1000   3.6000  79.4000 C     1    CU   0.0000
968    Cu  18.0900   3.6300  83.0500 C     1    CU   0.0000
969    Cu  18.0800   5.4300  81.2200 C     1    CU   0.0000
970    Cu  19.8800   3.6500  81.2700 C     1    CU   0.0000
971    Cu  19.8900   5.4300  79.3900 C     1    CU   0.0000
972    Cu  19.8800   5.4400  83.0600 C     1    CU   0.0000
973    Cu  21.6800   3.6200  79.5000 C     1    CU   0.0000
974    Cu  21.6800   3.6300  83.0600 C     1    CU   0.0000
975    Cu  21.6900   5.4400  81.2500 C     1    CU   0.0000
976    Cu  23.5000   3.6100  81.2700 C     1    CU   0.0000
977    Cu  23.5100   5.4300  79.4400 C     1    CU   0.0000
978    Cu  23.4600   5.4200  83.0900 C     1    CU   0.0000
979    Cu  25.3100   3.6200  79.4400 C     1    CU   0.0000
980    Cu  25.2700   3.5800  83.1100 C     1    CU   0.0000
981    Cu  25.2800   5.3900  81.3300 C     1    CU   0.0000
982    Cu  27.0900   3.5700  81.3300 C     1    CU   0.0000
983    Cu  27.1300   5.3800  79.6100 C     1    CU   0.0000
984    Cu  27.0600   5.3800  83.1500 C     1    CU   0.0000
985    Cu  28.9200   3.5900  79.5000 C     1    CU   0.0000
986    Cu  28.8800   3.5500  83.1600 C     1    CU   0.0000
987    Cu  28.8900   5.3900  81.4100 C     1    CU   0.0000
988    Cu  30.7000   3.5700  81.3800 C     1    CU   0.0000
989    Cu  30.6700   5.4200  79.6600 C     1    CU   0.0000
990    Cu  30.7100   5.3800  83.1800 C     1    CU   0.0000
991    Cu  32.5400   3.6200  79.6300 C     1    CU   0.0000
992    Cu  32.5500   3.5600  83.1500 C     1    CU   0.0000
993    Cu  32.5200   5.4100  81.4200 C     1    CU   0.0000
994    Cu  34.3700   3.6000  81.3700 C     1    CU   0.0000
995    Cu  34.3300   5.4800  79.6600 C     1    CU   0.0000
996    Cu  34.3800   5.4100  83.1400 C     1    CU   0.0000
997    Cu  36.2000   3.6400  79.6100 C     1    CU   0.0000
998    Cu  36.2300   3.6000  83.0900 C     1    CU   0.0000
999    Cu  36.1900   5.4500  81.3500 C     1    CU   0.0000
1000    Cu  38.0200   3.6400  81.2900 C     1    CU   0.0000
1001    Cu  37.9500   5.4600  79.4300 C     1    CU   0.0000
1002    Cu  38.0300   5.4300  83.0800 C     1    CU   0.0000
1003    Cu  39.7600   3.6300  79.3800 C     1    CU   0.0000
1004    Cu  39.8100   3.6000  83.0200 C     1    CU   0.0000
1005    Cu  39.7800   5.4400  81.2200 C     1    CU   0.0000
1006    Cu  41.5600   3.6200  81.2100 C     1    CU   0.0000
1007    Cu  41.5800   5.4500  79.3900 C     1    CU   0.0000
1008    Cu  41.5400   5.4200  83.0300 C     1    CU   0.0000
1009    Cu   0.0500   7.2100  79.5500 C     1    CU   0.0000
1010    Cu   0.1000   7.2300  83.0500 C     1    CU   0.0000
1011    Cu   0.0000   9.0500  81.2900 C     1    CU   0.0000
1012    Cu   1.8300   7.2600  81.3200 C     1    CU   0.0000
1013    Cu   1.7900   9.0500  79.4500 C     1    CU   0.0000
1014    Cu   1.7900   9.0500  83.0900 C     1    CU   0.0000
1015    Cu   3.6000   7.2100  79.4400 C     1    CU   0.0000
1016    Cu   3.6000   7.2400  83.1100 C     1    CU   0.0000
1017    Cu   3.6100   9.0400  81.2600 C     1    CU   0.0000
1018    Cu   5.4100   7.2300  81.2900 C     1    CU   0.0000
1019    Cu   5.4200   9.0300  79.4400 C     1    CU   0.0000
1020    Cu   5.3800   9.0300  83.0900 C     1    CU   0.0000
1021    Cu   7.2500   7.2100  79.5300 C     1    CU   0.0000
1022    Cu   7.2000   7.2300  83.1000 C     1    CU   0.0000
1023    Cu   7.2000   9.0300  81.3000 C     1    CU   0.0000
1024    Cu   9.0400   7.2100  81.3400 C     1    CU   0.0000
1025    Cu   9.0300   9.0100  79.5700 C     1    CU   0.0000
1026    Cu   9.0200   9.0100  83.1000 C     1    CU   0.0000
1027    Cu  10.8400   7.2100  79.4600 C     1    CU   0.0000
1028    Cu  10.8600   7.2100  83.1100 C     1    CU   0.0000
1029    Cu  10.8600   9.0000  81.3100 C     1    CU   0.0000
1030    Cu  12.6800   7.2300  81.2800 C     1    CU   0.0000
1031    Cu  12.6500   9.0200  79.4200 C     1    CU   0.0000
1032    Cu  12.6900   8.9900  83.1100 C     1    CU   0.0000
1033    Cu  14.4700   7.2300  79.3900 C     1    CU   0.0000
1034    Cu  14.5100   7.2100  83.0800 C     1    CU   0.0000
1035    Cu  14.4800   9.0100  81.2600 C     1    CU   0.0000
1036    Cu  16.2800   7.2200  81.2200 C     1    CU   0.0000
1037    Cu  16.2800   9.0400  79.3900 C     1    CU   0.0000
1038    Cu  16.3000   9.0100  83.0700 C     1    CU   0.0000
1039    Cu  18.0800   7.2400  79.3900 C     1    CU   0.0000
1040    Cu  18.0900   7.2200  83.0400 C     1    CU   0.0000
1041    Cu  18.0800   9.0200  81.2300 C     1    CU   0.0000
1042    Cu  19.8900   7.2300  81.2200 C     1    CU   0.0000
1043    Cu  19.8900   9.0400  79.4000 C     1    CU   0.0000
1044    Cu  19.8800   9.0100  83.0500 C     1    CU   0.0000
1045    Cu  21.7000   7.2300  79.3900 C     1    CU   0.0000
1046    Cu  21.6700   7.2300  83.0700 C     1    CU   0.0000
1047    Cu  21.6900   9.0300  81.2300 C     1    CU   0.0000
1048    Cu  23.4800   7.2300  81.2800 C     1    CU   0.0000
1049    Cu  23.5200   9.0200  79.4200 C     1    CU   0.0000
1050    Cu  23.4500   9.0400  83.0900 C     1    CU   0.0000
1051    Cu  25.3500   7.2000  79.5800 C     1    CU   0.0000
1052    Cu  25.2500   7.2200  83.1200 C     1    CU   0.0000
1053    Cu  25.2700   9.0400  81.3300 C     1    CU   0.0000
1054    Cu  27.1000   7.2100  81.3900 C     1    CU   0.0000
1055    Cu  27.0900   9.0200  79.6100 C     1    CU   0.0000
1056    Cu  27.0600   9.0500  83.1300 C     1    CU   0.0000
1057    Cu  28.8800   7.2200  79.5400 C     1    CU   0.0000
1058    Cu  28.8800   7.2300  83.1800 C     1    CU   0.0000
1059    Cu  28.8800   9.0400  81.3800 C     1    CU   0.0000
1060    Cu  30.6900   7.2300  81.4100 C     1    CU   0.0000
1061    Cu  30.6600   9.0200  79.6300 C     1    CU   0.0000
1062    Cu  30.7100   9.0600  83.1400 C     1    CU   0.0000
1063    Cu  32.5000   7.2000  79.6300 C     1    CU   0.0000
1064    Cu  32.5300   7.2500  83.1600 C     1    CU   0.0000
1065    Cu  32.5300   9.0500  81.3500 C     1    CU   0.0000
1066    Cu  34.3500   7.2700  81.3900 C     1    CU   0.0000
1067    Cu  34.3100   9.0100  79.4900 C     1    CU   0.0000
1068    Cu  34.3500   9.0800  83.1500 C     1    CU   0.0000
1069    Cu  36.1400   7.2500  79.5500 C     1    CU   0.0000
1070    Cu  36.2000   7.2500  83.1300 C     1    CU   0.0000
1071    Cu  36.1400   9.0600  81.3400 C     1    CU   0.0000
1072    Cu  37.9900   7.2400  81.3000 C     1    CU   0.0000
1073    Cu  37.9600   9.0900  79.6000 C     1    CU   0.0000
1074    Cu  37.9900   9.0600  83.0800 C     1    CU   0.0000
1075    Cu  39.7600   7.2800  79.4100 C     1    CU   0.0000
1076    Cu  39.7900   7.2400  83.0600 C     1    CU   0.0000
1077    Cu  39.7900   9.0600  81.2900 C     1    CU   0.0000
1078    Cu  41.5600   7.2400  81.2500 C     1    CU   0.0000
1079    Cu  41.6100   9.0400  79.4700 C     1    CU   0.0000
1080    Cu  41.5800   9.0400  83.0700 C     1    CU   0.0000
1081    Cu   0.1100  10.8700  79.5100 C     1    CU   0.0000
1082    Cu   0.1100  10.8600  83.0800 C     1    CU   0.0000
1083    Cu   0.1100  12.6700  81.2800 C     1    CU   0.0000
1084    Cu   1.8000  10.8400  81.2800 C     1    CU   0.0000
1085    Cu   1.7900  12.6300  79.4800 C     1    CU   0.0000
1086    Cu   1.7800  12.6400  83.0800 C     1    CU   0.0000
1087    Cu   3.6100  10.8500  79.4200 C     1    CU   0.0000
1088    Cu   3.5900  10.8300  83.0800 C     1    CU   0.0000
1089    Cu   3.6000  12.6300  81.2700 C     1    CU   0.0000
1090    Cu   5.4000  10.8300  81.2500 C     1    CU   0.0000
1091    Cu   5.4300  12.6500  79.4200 C     1    CU   0.0000
1092    Cu   5.3800  12.6000  83.0800 C     1    CU   0.0000
1093    Cu   7.2400  10.8200  79.4300 C     1    CU   0.0000
1094    Cu   7.1800  10.8100  83.1000 C     1    CU   0.0000
1095    Cu   7.2100  12.6000  81.3000 C     1    CU   0.0000
1096    Cu   9.0200  10.8100  81.3300 C     1    CU   0.0000
1097    Cu   9.0500  12.6200  79.5500 C     1    CU   0.0000
1098    Cu   9.0100  12.5700  83.1400 C     1    CU   0.0000
1099    Cu  10.8300  10.7900  79.5100 C     1    CU   0.0000
1100    Cu  10.8500  10.7700  83.1200 C     1    CU   0.0000
1101    Cu  10.8400  12.5800  81.3600 C     1    CU   0.0000
1102    Cu  12.6700  10.7700  81.3100 C     1    CU   0.0000
1103    Cu  12.6300  12.5800  79.5600 C     1    CU   0.0000
1104    Cu  12.6700  12.5700  83.1100 C     1    CU   0.0000
1105    Cu  14.4500  10.8300  79.4600 C     1    CU   0.0000
1106    Cu  14.4900  10.7800  83.1000 C     1    CU   0.0000
1107    Cu  14.4700  12.6000  81.3100 C     1    CU   0.0000
1108    Cu  16.2700  10.8200  81.2700 C     1    CU   0.0000
1109    Cu  16.2600  12.6400  79.4400 C     1    CU   0.0000
1110    Cu  16.2800  12.5900  83.1000 C     1    CU   0.0000
1111    Cu  18.0700  10.8600  79.4800 C     1    CU   0.0000
1112    Cu  18.0900  10.8100  83.0600 C     1    CU   0.0000
1113    Cu  18.0700  12.6300  81.2800 C     1    CU   0.0000
1114    Cu  19.8900  10.8200  81.2500 C     1    CU   0.0000
1115    Cu  19.8900  12.6700  79.5000 C     1    CU   0.0000
1116    Cu  19.8700  12.6100  83.0600 C     1    CU   0.0000
1117    Cu  21.7000  10.8400  79.4000 C     1    CU   0.0000
1118    Cu  21.6600  10.8200  83.0700 C     1    CU   0.0000
1119    Cu  21.6900  12.6200  81.2700 C     1    CU   0.0000
1120    Cu  23.4800  10.8300  81.2500 C     1    CU   0.0000
1121    Cu  23.5000  12.6500  79.4100 C     1    CU   0.0000
1122    Cu  23.4600  12.6100  83.0900 C     1    CU   0.0000
1123    Cu  25.3100  10.8300  79.4400 C     1    CU   0.0000
1124    Cu  25.2500  10.8400  83.1100 C     1    CU   0.0000
1125    Cu  25.2900  12.6300  81.2800 C     1    CU   0.0000
1126    Cu  27.0900  10.8600  81.3200 C     1    CU   0.0000
1127    Cu  27.1000  12.6400  79.4400 C     1    CU   0.0000
1128    Cu  27.0900  12.6200  83.1300 C     1    CU   0.0000
1129    Cu  28.8900  10.8200  79.4700 C     1    CU   0.0000
1130    Cu  28.9000  10.8600  83.1300 C     1    CU   0.0000
1131    Cu  28.9100  12.6300  81.2900 C     1    CU   0.0000
1132    Cu  30.7100  10.8600  81.3200 C     1    CU   0.0000
1133    Cu  30.7100  12.6300  79.4400 C     1    CU   0.0000
1134    Cu  30.7200  12.6400  83.1100 C     1    CU   0.0000
1135    Cu  32.5000  10.8100  79.4600 C     1    CU   0.0000
1136    Cu  32.5200  10.8600  83.1100 C     1    CU   0.0000
1137    Cu  32.5200  12.6300  81.2800 C     1    CU   0.0000
1138    Cu  34.3300  10.8500  81.3000 C     1    CU   0.0000
1139    Cu  34.3200  12.6400  79.4400 C     1    CU   0.0000
1140    Cu  34.3400  12.6300  83.1000 C     1    CU   0.0000
1141    Cu  36.1200  10.8400  79.5000 C     1    CU   0.0000
1142    Cu  36.1700  10.8700  83.1100 C     1    CU   0.0000
1143    Cu  36.1500  12.6600  81.2900 C     1    CU   0.0000
1144    Cu  37.9700  10.8900  81.3200 C     1    CU   0.0000
1145    Cu  37.9500  12.6700  79.4700 C     1    CU   0.0000
1146    Cu  37.9700  12.6800  83.1100 C     1    CU   0.0000
1147    Cu  39.7800  10.8600  79.4600 C     1    CU   0.0000
1148    Cu  39.7800  10.8600  83.1000 C     1    CU   0.0000
1149    Cu  39.7700  12.6700  81.2900 C     1    CU   0.0000
1150    Cu  41.5600  10.8700  81.2900 C     1    CU   0.0000
1151    Cu  41.5600  12.6800  79.4300 C     1    CU   0.0000
1152    Cu  41.5700  12.6700  83.0900 C     1    CU   0.0000
1153    Cu   0.0000  14.4600  79.4200 C     1    CU   0.0000
1154    Cu   0.1100  14.4600  83.0900 C     1    CU   0.0000
1155    Cu   0.1100  16.2600  81.2600 C     1    CU   0.0000
1156    Cu   1.7900  14.4500  81.2700 C     1    CU   0.0000
1157    Cu   1.8100  16.2600  79.4400 C     1    CU   0.0000
1158    Cu   1.7700  16.2300  83.1000 C     1    CU   0.0000
1159    Cu   3.6200  14.4500  79.4900 C     1    CU   0.0000
1160    Cu   3.5700  14.4100  83.0900 C     1    CU   0.0000
1161    Cu   3.5900  16.2300  81.3200 C     1    CU   0.0000
1162    Cu   5.4000  14.4100  81.3100 C     1    CU   0.0000
1163    Cu   5.4300  16.2400  79.5400 C     1    CU   0.0000
1164    Cu   5.3800  16.1900  83.1300 C     1    CU   0.0000
1165    Cu   7.2400  14.4600  79.5500 C     1    CU   0.0000
1166    Cu   7.1900  14.3800  83.1200 C     1    CU   0.0000
1167    Cu   7.2000  16.2300  81.3800 C     1    CU   0.0000
1168    Cu   9.0200  14.3800  81.3900 C     1    CU   0.0000
1169    Cu   9.0500  16.2100  79.6900 C     1    CU   0.0000
1170    Cu   9.0300  16.2100  83.1400 C     1    CU   0.0000
1171    Cu  10.8100  14.4200  79.6100 C     1    CU   0.0000
1172    Cu  10.8500  14.3800  83.1400 C     1    CU   0.0000
1173    Cu  10.8700  16.2300  81.4000 C     1    CU   0.0000
1174    Cu  12.6600  14.4100  81.3500 C     1    CU   0.0000
1175    Cu  12.6300  16.2500  79.5400 C     1    CU   0.0000
1176    Cu  12.6700  16.2200  83.1600 C     1    CU   0.0000
1177    Cu  14.4500  14.4400  79.5100 C     1    CU   0.0000
1178    Cu  14.4700  14.4000  83.1300 C     1    CU   0.0000
1179    Cu  14.4500  16.2200  81.3500 C     1    CU   0.0000
1180    Cu  16.2700  14.4100  81.3100 C     1    CU   0.0000
1181    Cu  16.2800  16.2300  79.5900 C     1    CU   0.0000
1182    Cu  16.2800  16.2200  83.0900 C     1    CU   0.0000
1183    Cu  18.0800  14.4400  79.4500 C     1    CU   0.0000
1184    Cu  18.0800  14.4200  83.0800 C     1    CU   0.0000
1185    Cu  18.1000  16.2400  81.3100 C     1    CU   0.0000
1186    Cu  19.8800  14.4400  81.2900 C     1    CU   0.0000
1187    Cu  19.9100  16.2600  79.4600 C     1    CU   0.0000
1188    Cu  19.8800  16.2200  83.1000 C     1    CU   0.0000
1189    Cu  21.7200  14.4700  79.5500 C     1    CU   0.0000
1190    Cu  21.6700  14.4100  83.0900 C     1    CU   0.0000
1191    Cu  21.6900  16.2500  81.3400 C     1    CU   0.0000
1192    Cu  23.5100  14.4100  81.3200 C     1    CU   0.0000
1193    Cu  23.5200  16.2400  79.5800 C     1    CU   0.0000
1194    Cu  23.4700  16.2000  83.1300 C     1    CU   0.0000
1195    Cu  25.3100  14.4400  79.4700 C     1    CU   0.0000
1196    Cu  25.2900  14.4000  83.1300 C     1    CU   0.0000
1197    Cu  25.3100  16.2200  81.3800 C     1    CU   0.0000
1198    Cu  27.1100  14.4000  81.3300 C     1    CU   0.0000
1199    Cu  27.1000  16.2300  79.6300 C     1    CU   0.0000
1200    Cu  27.1300  16.2100  83.1500 C     1    CU   0.0000
1201    Cu  28.9000  14.4500  79.4600 C     1    CU   0.0000
1202    Cu  28.9200  14.4100  83.1200 C     1    CU   0.0000
1203    Cu  28.9400  16.2300  81.3400 C     1    CU   0.0000
1204    Cu  30.7200  14.4300  81.2900 C     1    CU   0.0000
1205    Cu  30.7100  16.2500  79.4800 C     1    CU   0.0000
1206    Cu  30.7300  16.2200  83.1400 C     1    CU   0.0000
1207    Cu  32.5200  14.4500  79.4600 C     1    CU   0.0000
1208    Cu  32.5300  14.4200  83.1100 C     1    CU   0.0000
1209    Cu  32.4900  16.2400  81.3300 C     1    CU   0.0000
1210    Cu  34.3300  14.4100  81.3200 C     1    CU   0.0000
1211    Cu  34.3100  16.2400  79.6400 C     1    CU   0.0000
1212    Cu  34.3300  16.2500  83.0800 C     1    CU   0.0000
1213    Cu  36.1300  14.4600  79.4500 C     1    CU   0.0000
1214    Cu  36.1400  14.4500  83.1100 C     1    CU   0.0000
1215    Cu  36.1600  16.2500  81.3100 C     1    CU   0.0000
1216    Cu  37.9400  14.4600  81.3000 C     1    CU   0.0000
1217    Cu  37.9300  16.2700  79.4400 C     1    CU   0.0000
1218    Cu  37.9500  16.2600  83.1000 C     1    CU   0.0000
1219    Cu  39.7500  14.5000  79.5300 C     1    CU   0.0000
1220    Cu  39.7700  14.4800  83.0800 C     1    CU   0.0000
1221    Cu  39.7500  16.2900  81.2800 C     1    CU   0.0000
1222    Cu  41.5800  14.4700  81.2700 C     1    CU   0.0000
1223    Cu  41.5700  16.2700  79.4200 C     1    CU   0.0000
1224    Cu  41.5500  16.2600  83.0800 C     1    CU   0.0000
1225    Cu   0.0200  18.0900  79.4400 C     1    CU   0.0000
1226    Cu   0.0800  18.0400  83.0900 C     1    CU   0.0000
1227    Cu   0.0900  19.8600  81.3200 C     1    CU   0.0000
1228    Cu   1.7800  18.0400  81.3300 C     1    CU   0.0000
1229    Cu   1.8300  19.8800  79.5900 C     1    CU   0.0000
1230    Cu   1.7600  19.8200  83.1400 C     1    CU   0.0000
1231    Cu   3.5900  18.0600  79.5800 C     1    CU   0.0000
1232    Cu   3.5800  18.0100  83.1400 C     1    CU   0.0000
1233    Cu   3.6100  19.8400  81.4000 C     1    CU   0.0000
1234    Cu   5.4200  18.0200  81.3700 C     1    CU   0.0000
1235    Cu   5.4200  19.8100  79.6000 C     1    CU   0.0000
1236    Cu   5.4100  19.8300  83.1700 C     1    CU   0.0000
1237    Cu   7.2400  18.0300  79.5300 C     1    CU   0.0000
1238    Cu   7.2100  18.0200  83.1700 C     1    CU   0.0000
1239    Cu   7.2200  19.8400  81.3700 C     1    CU   0.0000
1240    Cu   9.0200  18.0600  81.3900 C     1    CU   0.0000
1241    Cu   9.0300  19.8700  79.5200 C     1    CU   0.0000
1242    Cu   9.0200  19.8400  83.1900 C     1    CU   0.0000
1243    Cu  10.8100  18.0500  79.5800 C     1    CU   0.0000
1244    Cu  10.8500  18.0500  83.1600 C     1    CU   0.0000
1245    Cu  10.8300  19.8600  81.3700 C     1    CU   0.0000
1246    Cu  12.6500  18.0500  81.3600 C     1    CU   0.0000
1247    Cu  12.6200  19.8600  79.5600 C     1    CU   0.0000
1248    Cu  12.6800  19.8600  83.1300 C     1    CU   0.0000
1249    Cu  14.4600  18.0400  79.5800 C     1    CU   0.0000
1250    Cu  14.4900  18.0500  83.1100 C     1    CU   0.0000
1251    Cu  14.4800  19.8700  81.3300 C     1    CU   0.0000
1252    Cu  16.2900  18.0500  81.3300 C     1    CU   0.0000
1253    Cu  16.3200  19.8700  79.5700 C     1    CU   0.0000
1254    Cu  16.3000  19.8800  83.1000 C     1    CU   0.0000
1255    Cu  18.1000  18.0600  79.4800 C     1    CU   0.0000
1256    Cu  18.0900  18.0400  83.1100 C     1    CU   0.0000
1257    Cu  18.1000  19.8800  81.3300 C     1    CU   0.0000
1258    Cu  19.8900  18.0400  81.3300 C     1    CU   0.0000
1259    Cu  19.9400  19.8800  79.6000 C     1    CU   0.0000
1260    Cu  19.8800  19.8800  83.1200 C     1    CU   0.0000
1261    Cu  21.7200  18.0700  79.5500 C     1    CU   0.0000
1262    Cu  21.6800  18.0400  83.1300 C     1    CU   0.0000
1263    Cu  21.7000  19.8700  81.3800 C     1    CU   0.0000
1264    Cu  23.5200  18.0400  81.3900 C     1    CU   0.0000
1265    Cu  23.5500  19.8500  79.6700 C     1    CU   0.0000
1266    Cu  23.5000  19.8700  83.1500 C     1    CU   0.0000
1267    Cu  25.3300  18.0400  79.5500 C     1    CU   0.0000
1268    Cu  25.3100  18.0300  83.1800 C     1    CU   0.0000
1269    Cu  25.3500  19.8500  81.4100 C     1    CU   0.0000
1270    Cu  27.1300  18.0500  81.3800 C     1    CU   0.0000
1271    Cu  27.1200  19.8600  79.5200 C     1    CU   0.0000
1272    Cu  27.1600  19.8600  83.1800 C     1    CU   0.0000
1273    Cu  28.8900  18.0400  79.5400 C     1    CU   0.0000
1274    Cu  28.9500  18.0400  83.1500 C     1    CU   0.0000
1275    Cu  28.9400  19.8600  81.3400 C     1    CU   0.0000
1276    Cu  30.7300  18.0600  81.3100 C     1    CU   0.0000
1277    Cu  30.7200  19.8500  79.4500 C     1    CU   0.0000
1278    Cu  30.7500  19.8700  83.1300 C     1    CU   0.0000
1279    Cu  32.5300  18.0500  79.4600 C     1    CU   0.0000
1280    Cu  32.5300  18.0600  83.1100 C     1    CU   0.0000
1281    Cu  32.5300  19.8700  81.2800 C     1    CU   0.0000
1282    Cu  34.3200  18.0900  81.3100 C     1    CU   0.0000
1283    Cu  34.3200  19.8700  79.4300 C     1    CU   0.0000
1284    Cu  34.3400  19.8900  83.1000 C     1    CU   0.0000
1285    Cu  36.1100  18.0500  79.4600 C     1    CU   0.0000
1286    Cu  36.1400  18.0700  83.0900 C     1    CU   0.0000
1287    Cu  36.1200  19.8800  81.2800 C     1    CU   0.0000
1288    Cu  37.9400  18.0600  81.2800 C     1    CU   0.0000
1289    Cu  37.9300  19.8500  79.5200 C     1    CU   0.0000
1290    Cu  37.9400  19.8800  83.0500 C     1    CU   0.0000
1291    Cu  39.7500  18.0700  79.4200 C     1    CU   0.0000
1292    Cu  39.7500  18.0700  83.0800 C     1    CU   0.0000
1293    Cu  39.7500  19.8700  81.2600 C     1    CU   0.0000
1294    Cu  41.5600  18.0700  81.2600 C     1    CU   0.0000
1295    Cu  41.5700  19.8800  79.4300 C     1    CU   0.0000
1296    Cu  41.5200  19.8700  83.0800 C     1    CU   0.0000
1297    Cu   0.0000  21.6900  79.5700 C     1    CU   0.0000
1298    Cu   0.0500  21.6700  83.1200 C     1    CU   0.0000
1299    Cu   0.0700  23.4800  81.3600 C     1    CU   0.0000
1300    Cu   1.7900  21.6300  81.4200 C     1    CU   0.0000
1301    Cu   1.8100  23.4100  79.7300 C     1    CU   0.0000
1302    Cu   1.7600  23.5000  83.1300 C     1    CU   0.0000
1303    Cu   3.6100  21.6600  79.6100 C     1    CU   0.0000
1304    Cu   3.6000  21.6600  83.1700 C     1    CU   0.0000
1305    Cu   3.6300  23.4800  81.4000 C     1    CU   0.0000
1306    Cu   5.4200  21.6600  81.3800 C     1    CU   0.0000
1307    Cu   5.4100  23.4800  79.5300 C     1    CU   0.0000
1308    Cu   5.4000  23.4900  83.1900 C     1    CU   0.0000
1309    Cu   7.2200  21.6700  79.5400 C     1    CU   0.0000
1310    Cu   7.2000  21.6500  83.1800 C     1    CU   0.0000
1311    Cu   7.1800  23.4600  81.4100 C     1    CU   0.0000
1312    Cu   9.0200  21.6300  81.4000 C     1    CU   0.0000
1313    Cu   9.0300  23.4400  79.7100 C     1    CU   0.0000
1314    Cu   9.0100  23.4700  83.1700 C     1    CU   0.0000
1315    Cu  10.8400  21.6800  79.5400 C     1    CU   0.0000
1316    Cu  10.8500  21.6600  83.1700 C     1    CU   0.0000
1317    Cu  10.8500  23.4700  81.4200 C     1    CU   0.0000
1318    Cu  12.6500  21.6700  81.3700 C     1    CU   0.0000
1319    Cu  12.6400  23.4800  79.6200 C     1    CU   0.0000
1320    Cu  12.7000  23.4900  83.1600 C     1    CU   0.0000
1321    Cu  14.4600  21.7200  79.5800 C     1    CU   0.0000
1322    Cu  14.5100  21.6900  83.1000 C     1    CU   0.0000
1323    Cu  14.4900  23.5200  81.3400 C     1    CU   0.0000
1324    Cu  16.3000  21.7100  81.3100 C     1    CU   0.0000
1325    Cu  16.2700  23.5100  79.4500 C     1    CU   0.0000
1326    Cu  16.3000  23.5300  83.1000 C     1    CU   0.0000
1327    Cu  18.1000  21.6900  79.4800 C     1    CU   0.0000
1328    Cu  18.0800  21.7200  83.1100 C     1    CU   0.0000
1329    Cu  18.0800  23.5300  81.2700 C     1    CU   0.0000
1330    Cu  19.8600  21.7300  81.3400 C     1    CU   0.0000
1331    Cu  19.8900  23.5100  79.4500 C     1    CU   0.0000
1332    Cu  19.8600  23.5600  83.0900 C     1    CU   0.0000
1333    Cu  21.7100  21.7400  79.6700 C     1    CU   0.0000
1334    Cu  21.6700  21.7300  83.1200 C     1    CU   0.0000
1335    Cu  21.6800  23.5600  81.3300 C     1    CU   0.0000
1336    Cu  23.5200  21.7100  81.3900 C     1    CU   0.0000
1337    Cu  23.5300  23.4900  79.5200 C     1    CU   0.0000
1338    Cu  23.4700  23.5400  83.1200 C     1    CU   0.0000
1339    Cu  25.3600  21.6700  79.6400 C     1    CU   0.0000
1340    Cu  25.3200  21.6900  83.1600 C     1    CU   0.0000
1341    Cu  25.3100  23.5000  81.3800 C     1    CU   0.0000
1342    Cu  27.1600  21.6600  81.3900 C     1    CU   0.0000
1343    Cu  27.1300  23.4500  79.6000 C     1    CU   0.0000
1344    Cu  27.1200  23.5100  83.1600 C     1    CU   0.0000
1345    Cu  28.9200  21.6700  79.5000 C     1    CU   0.0000
1346    Cu  28.9600  21.6800  83.1600 C     1    CU   0.0000
1347    Cu  28.9300  23.4800  81.3600 C     1    CU   0.0000
1348    Cu  30.7400  21.6600  81.3200 C     1    CU   0.0000
1349    Cu  30.7100  23.4800  79.5700 C     1    CU   0.0000
1350    Cu  30.7600  23.5000  83.1200 C     1    CU   0.0000
1351    Cu  32.5100  21.6800  79.4400 C     1    CU   0.0000
1352    Cu  32.5500  21.6900  83.1000 C     1    CU   0.0000
1353    Cu  32.5500  23.4900  81.2900 C     1    CU   0.0000
1354    Cu  34.3400  21.6800  81.2600 C     1    CU   0.0000
1355    Cu  34.3200  23.4900  79.4100 C     1    CU   0.0000
1356    Cu  34.3600  23.5000  83.0700 C     1    CU   0.0000
1357    Cu  36.1400  21.6700  79.4100 C     1    CU   0.0000
1358    Cu  36.1500  21.7000  83.0600 C     1    CU   0.0000
1359    Cu  36.1400  23.4900  81.2400 C     1    CU   0.0000
1360    Cu  37.9400  21.7000  81.2500 C     1    CU   0.0000
1361    Cu  37.9300  23.4900  79.3800 C     1    CU   0.0000
1362    Cu  37.9400  23.5100  83.0500 C     1    CU   0.0000
1363    Cu  39.7400  21.6700  79.4100 C     1    CU   0.0000
1364    Cu  39.7200  21.6900  83.0500 C     1    CU   0.0000
1365    Cu  39.7300  23.5000  81.2300 C     1    CU   0.0000
1366    Cu  41.5200  21.6800  81.2800 C     1    CU   0.0000
1367    Cu  41.5600  23.4800  79.4400 C     1    CU   0.0000
1368    Cu  41.4800  23.5000  83.0700 C     1    CU   0.0000
1369    Cu   0.0200  25.2400  79.5600 C     1    CU   0.0000
1370    Cu   0.0600  25.3100  83.0900 C     1    CU   0.0000
1371    Cu   0.1000  27.0900  81.2900 C     1    CU   0.0000
1372    Cu   1.8000  25.3100  81.3500 C     1    CU   0.0000
1373    Cu   1.7900  27.0900  79.4700 C     1    CU   0.0000
1374    Cu   1.7500  27.1300  83.1100 C     1    CU   0.0000
1375    Cu   3.6200  25.2800  79.5500 C     1    CU   0.0000
1376    Cu   3.5700  25.3300  83.1600 C     1    CU   0.0000
1377    Cu   3.5800  27.1200  81.3200 C     1    CU   0.0000
1378    Cu   5.3700  25.3100  81.4000 C     1    CU   0.0000
1379    Cu   5.4000  27.1200  79.5500 C     1    CU   0.0000
1380    Cu   5.3700  27.1500  83.1400 C     1    CU   0.0000
1381    Cu   7.1800  25.3100  79.7000 C     1    CU   0.0000
1382    Cu   7.1900  25.3300  83.1600 C     1    CU   0.0000
1383    Cu   7.2000  27.1500  81.3800 C     1    CU   0.0000
1384    Cu   9.0300  25.3000  81.4200 C     1    CU   0.0000
1385    Cu   9.0100  27.0600  79.6100 C     1    CU   0.0000
1386    Cu   9.0100  27.1500  83.1500 C     1    CU   0.0000
1387    Cu  10.8100  25.2600  79.5600 C     1    CU   0.0000
1388    Cu  10.8500  25.3100  83.1700 C     1    CU   0.0000
1389    Cu  10.8200  27.1100  81.3900 C     1    CU   0.0000
1390    Cu  12.6500  25.2900  81.3900 C     1    CU   0.0000
1391    Cu  12.5900  27.0600  79.6600 C     1    CU   0.0000
1392    Cu  12.6800  27.1400  83.1100 C     1    CU   0.0000
1393    Cu  14.4300  25.3000  79.4700 C     1    CU   0.0000
1394    Cu  14.5000  25.3400  83.1200 C     1    CU   0.0000
1395    Cu  14.4800  27.1100  81.3000 C     1    CU   0.0000
1396    Cu  16.2700  25.3200  81.2700 C     1    CU   0.0000
1397    Cu  16.2500  27.1000  79.4200 C     1    CU   0.0000
1398    Cu  16.2900  27.1400  83.0700 C     1    CU   0.0000
1399    Cu  18.0800  25.3200  79.4500 C     1    CU   0.0000
1400    Cu  18.0800  25.3500  83.0600 C     1    CU   0.0000
1401    Cu  18.0800  27.1200  81.2500 C     1    CU   0.0000
1402    Cu  19.8800  25.3300  81.2500 C     1    CU   0.0000
1403    Cu  19.9000  27.1100  79.3900 C     1    CU   0.0000
1404    Cu  19.8700  27.1400  83.0600 C     1    CU   0.0000
1405    Cu  21.7200  25.2900  79.4200 C     1    CU   0.0000
1406    Cu  21.6600  25.3600  83.1000 C     1    CU   0.0000
1407    Cu  21.6800  27.1200  81.2500 C     1    CU   0.0000
1408    Cu  23.4800  25.3200  81.3000 C     1    CU   0.0000
1409    Cu  23.5000  27.1100  79.4600 C     1    CU   0.0000
1410    Cu  23.4600  27.1400  83.0800 C     1    CU   0.0000
1411    Cu  25.3300  25.2700  79.5800 C     1    CU   0.0000
1412    Cu  25.2800  25.3400  83.1100 C     1    CU   0.0000
1413    Cu  25.2800  27.1300  81.3100 C     1    CU   0.0000
1414    Cu  27.1200  25.2900  81.3600 C     1    CU   0.0000
1415    Cu  27.1000  27.0700  79.5700 C     1    CU   0.0000
1416    Cu  27.0800  27.1300  83.1100 C     1    CU   0.0000
1417    Cu  28.9000  25.2700  79.5000 C     1    CU   0.0000
1418    Cu  28.9300  25.3200  83.1300 C     1    CU   0.0000
1419    Cu  28.9000  27.1100  81.3500 C     1    CU   0.0000
1420    Cu  30.7300  25.3000  81.3300 C     1    CU   0.0000
1421    Cu  30.6600  27.0900  79.5700 C     1    CU   0.0000
1422    Cu  30.7400  27.1200  83.1000 C     1    CU   0.0000
1423    Cu  32.4900  25.2900  79.4600 C     1    CU   0.0000
1424    Cu  32.5600  25.3100  83.0900 C     1    CU   0.0000
1425    Cu  32.5400  27.1100  81.2800 C     1    CU   0.0000
1426    Cu  34.3300  25.3000  81.2500 C     1    CU   0.0000
1427    Cu  34.3100  27.1100  79.4100 C     1    CU   0.0000
1428    Cu  34.3600  27.1100  83.0600 C     1    CU   0.0000
1429    Cu  36.1300  25.3100  79.4400 C     1    CU   0.0000
1430    Cu  36.1500  25.3100  83.0400 C     1    CU   0.0000
1431    Cu  36.1400  27.1100  81.2300 C     1    CU   0.0000
1432    Cu  37.9400  25.3000  81.2200 C     1    CU   0.0000
1433    Cu  37.9400  27.1200  79.3800 C     1    CU   0.0000
1434    Cu  37.9300  27.1100  83.0300 C     1    CU   0.0000
1435    Cu  39.7500  25.3000  79.3700 C     1    CU   0.0000
1436    Cu  39.7100  25.3100  83.0400 C     1    CU   0.0000
1437    Cu  39.7400  27.1000  81.2200 C     1    CU   0.0000
1438    Cu  41.5200  25.3000  81.2600 C     1    CU   0.0000
1439    Cu  41.5800  27.0900  79.4300 C     1    CU   0.0000
1440    Cu  41.5200  27.1000  83.0600 C     1    CU   0.0000
1441    Cu   0.1000  28.9000  79.5300 C     1    CU   0.0000
1442    Cu   0.0800  28.9000  83.0800 C     1    CU   0.0000
1443    Cu   0.1000  30.7200  81.2800 C     1    CU   0.0000
1444    Cu   1.7800  28.9100  81.2900 C     1    CU   0.0000
1445    Cu   1.7900  30.7000  79.4700 C     1    CU   0.0000
1446    Cu   1.7600  30.7100  83.0800 C     1    CU   0.0000
1447    Cu   3.6000  28.9300  79.5000 C     1    CU   0.0000
1448    Cu   3.5600  28.9300  83.1000 C     1    CU   0.0000
1449    Cu   3.5900  30.7100  81.3000 C     1    CU   0.0000
1450    Cu   5.4000  28.9400  81.3100 C     1    CU   0.0000
1451    Cu   5.4300  30.7100  79.4600 C     1    CU   0.0000
1452    Cu   5.3700  30.7200  83.1100 C     1    CU   0.0000
1453    Cu   7.2300  28.8900  79.4700 C     1    CU   0.0000
1454    Cu   7.1900  28.9500  83.1400 C     1    CU   0.0000
1455    Cu   7.2100  30.7100  81.3200 C     1    CU   0.0000
1456    Cu   9.0200  28.9300  81.3300 C     1    CU   0.0000
1457    Cu   9.0300  30.7100  79.5100 C     1    CU   0.0000
1458    Cu   9.0300  30.7200  83.1300 C     1    CU   0.0000
1459    Cu  10.8100  28.8800  79.4800 C     1    CU   0.0000
1460    Cu  10.8500  28.9400  83.1300 C     1    CU   0.0000
1461    Cu  10.8400  30.7200  81.3000 C     1    CU   0.0000
1462    Cu  12.6400  28.9400  81.3100 C     1    CU   0.0000
1463    Cu  12.6200  30.7000  79.4300 C     1    CU   0.0000
1464    Cu  12.6700  30.7300  83.0900 C     1    CU   0.0000
1465    Cu  14.4100  28.8800  79.4500 C     1    CU   0.0000
1466    Cu  14.4800  28.9300  83.0700 C     1    CU   0.0000
1467    Cu  14.4500  30.7200  81.2500 C     1    CU   0.0000
1468    Cu  16.2600  28.9100  81.2400 C     1    CU   0.0000
1469    Cu  16.2400  30.7000  79.4200 C     1    CU   0.0000
1470    Cu  16.2700  30.7200  83.0500 C     1    CU   0.0000
1471    Cu  18.0700  28.8900  79.4500 C     1    CU   0.0000
1472    Cu  18.0800  28.9300  83.0500 C     1    CU   0.0000
1473    Cu  18.0700  30.7000  81.2400 C     1    CU   0.0000
1474    Cu  19.8800  28.9200  81.2300 C     1    CU   0.0000
1475    Cu  19.8700  30.7200  79.3900 C     1    CU   0.0000
1476    Cu  19.8700  30.7200  83.0300 C     1    CU   0.0000
1477    Cu  21.6900  28.9300  79.4500 C     1    CU   0.0000
1478    Cu  21.6600  28.9300  83.0400 C     1    CU   0.0000
1479    Cu  21.6800  30.7300  81.2300 C     1    CU   0.0000
1480    Cu  23.4800  28.9300  81.2600 C     1    CU   0.0000
1481    Cu  23.5000  30.7200  79.4100 C     1    CU   0.0000
1482    Cu  23.4500  30.7200  83.0700 C     1    CU   0.0000
1483    Cu  25.3200  28.9000  79.4300 C     1    CU   0.0000
1484    Cu  25.2600  28.9300  83.1000 C     1    CU   0.0000
1485    Cu  25.2800  30.7100  81.2900 C     1    CU   0.0000
1486    Cu  27.0900  28.9200  81.3200 C     1    CU   0.0000
1487    Cu  27.1100  30.7000  79.5200 C     1    CU   0.0000
1488    Cu  27.0700  30.7100  83.1200 C     1    CU   0.0000
1489    Cu  28.8900  28.9000  79.4800 C     1    CU   0.0000
1490    Cu  28.9000  28.9200  83.1200 C     1    CU   0.0000
1491    Cu  28.9100  30.7100  81.3100 C     1    CU   0.0000
1492    Cu  30.7100  28.9200  81.3100 C     1    CU   0.0000
1493    Cu  30.6900  30.7000  79.4500 C     1    CU   0.0000
1494    Cu  30.7200  30.7000  83.1100 C     1    CU   0.0000
1495    Cu  32.5000  28.9100  79.4600 C     1    CU   0.0000
1496    Cu  32.5400  28.9000  83.0800 C     1    CU   0.0000
1497    Cu  32.5200  30.6900  81.2900 C     1    CU   0.0000
1498    Cu  34.3300  28.9100  81.2500 C     1    CU   0.0000
1499    Cu  34.3200  30.7200  79.4200 C     1    CU   0.0000
1500    Cu  34.3400  30.6900  83.0800 C     1    CU   0.0000
1501    Cu  36.1300  28.9200  79.4300 C     1    CU   0.0000
1502    Cu  36.1500  28.9100  83.0500 C     1    CU   0.0000
1503    Cu  36.1400  30.7100  81.2600 C     1    CU   0.0000
1504    Cu  37.9400  28.9100  81.2400 C     1    CU   0.0000
1505    Cu  37.9600  30.7400  79.4500 C     1    CU   0.0000
1506    Cu  37.9500  30.6900  83.0700 C     1    CU   0.0000
1507    Cu  39.7600  28.9300  79.4400 C     1    CU   0.0000
1508    Cu  39.7300  28.8900  83.0500 C     1    CU   0.0000
1509    Cu  39.7600  30.7100  81.2700 C     1    CU   0.0000
1510    Cu  41.5400  28.9000  81.2600 C     1    CU   0.0000
1511    Cu  41.5700  30.7200  79.4100 C     1    CU   0.0000
1512    Cu  41.5500  30.7000  83.0800 C     1    CU   0.0000
1513    Cu   0.0000  32.5200  79.4600 C     1    CU   0.0000
1514    Cu   0.1000  32.5100  83.0800 C     1    CU   0.0000
1515    Cu   0.1200  34.3200  81.2700 C     1    CU   0.0000
1516    Cu   1.7800  32.5200  81.2900 C     1    CU   0.0000
1517    Cu   1.8200  34.3100  79.4500 C     1    CU   0.0000
1518    Cu   1.7600  34.3200  83.1000 C     1    CU   0.0000
1519    Cu   3.6500  32.5200  79.5600 C     1    CU   0.0000
1520    Cu   3.5600  32.5100  83.1100 C     1    CU   0.0000
1521    Cu   3.5900  34.3200  81.3300 C     1    CU   0.0000
1522    Cu   5.4100  32.5200  81.3400 C     1    CU   0.0000
1523    Cu   5.4100  34.3400  79.5100 C     1    CU   0.0000
1524    Cu   5.3800  34.3200  83.1400 C     1    CU   0.0000
1525    Cu   7.2000  32.5400  79.5600 C     1    CU   0.0000
1526    Cu   7.2000  32.5000  83.1400 C     1    CU   0.0000
1527    Cu   7.2000  34.3300  81.3600 C     1    CU   0.0000
1528    Cu   9.0300  32.5000  81.3500 C     1    CU   0.0000
1529    Cu   9.0200  34.2900  79.6100 C     1    CU   0.0000
1530    Cu   9.0300  34.3100  83.1400 C     1    CU   0.0000
1531    Cu  10.8300  32.5200  79.4600 C     1    CU   0.0000
1532    Cu  10.8600  32.5000  83.1200 C     1    CU   0.0000
1533    Cu  10.8500  34.3100  81.3300 C     1    CU   0.0000
1534    Cu  12.6500  32.5100  81.2700 C     1    CU   0.0000
1535    Cu  12.6300  34.3500  79.4600 C     1    CU   0.0000
1536    Cu  12.6600  34.3100  83.1000 C     1    CU   0.0000
1537    Cu  14.4300  32.5200  79.4200 C     1    CU   0.0000
1538    Cu  14.4700  32.5100  83.0700 C     1    CU   0.0000
1539    Cu  14.4400  34.3200  81.2800 C     1    CU   0.0000
1540    Cu  16.2400  32.5000  81.2600 C     1    CU   0.0000
1541    Cu  16.2500  34.3200  79.4900 C     1    CU   0.0000
1542    Cu  16.2700  34.3000  83.0500 C     1    CU   0.0000
1543    Cu  18.0400  32.5000  79.4700 C     1    CU   0.0000
1544    Cu  18.0700  32.5100  83.0200 C     1    CU   0.0000
1545    Cu  18.0700  34.3200  81.2600 C     1    CU   0.0000
1546    Cu  19.8800  32.5200  81.2300 C     1    CU   0.0000
1547    Cu  19.8600  34.3300  79.4200 C     1    CU   0.0000
1548    Cu  19.8600  34.3100  83.0600 C     1    CU   0.0000
1549    Cu  21.6800  32.5300  79.3800 C     1    CU   0.0000
1550    Cu  21.6600  32.5200  83.0600 C     1    CU   0.0000
1551    Cu  21.6700  34.3200  81.2500 C     1    CU   0.0000
1552    Cu  23.4700  32.5200  81.2700 C     1    CU   0.0000
1553    Cu  23.4900  34.3200  79.4500 C     1    CU   0.0000
1554    Cu  23.4500  34.3200  83.0800 C     1    CU   0.0000
1555    Cu  25.2900  32.5300  79.5100 C     1    CU   0.0000
1556    Cu  25.2600  32.5100  83.0900 C     1    CU   0.0000
1557    Cu  25.2800  34.3300  81.3100 C     1    CU   0.0000
1558    Cu  27.1000  32.5000  81.3300 C     1    CU   0.0000
1559    Cu  27.1000  34.2900  79.5600 C     1    CU   0.0000
1560    Cu  27.0900  34.3200  83.1100 C     1    CU   0.0000
1561    Cu  28.9000  32.5100  79.4600 C     1    CU   0.0000
1562    Cu  28.9000  32.5000  83.1200 C     1    CU   0.0000
1563    Cu  28.9200  34.3100  81.3200 C     1    CU   0.0000
1564    Cu  30.7000  32.5000  81.3000 C     1    CU   0.0000
1565    Cu  30.7200  34.3200  79.4500 C     1    CU   0.0000
1566    Cu  30.7200  34.3100  83.1100 C     1    CU   0.0000
1567    Cu  32.5100  32.4900  79.5200 C     1    CU   0.0000
1568    Cu  32.5200  32.4900  83.0900 C     1    CU   0.0000
1569    Cu  32.5000  34.3100  81.3100 C     1    CU   0.0000
1570    Cu  34.3400  32.4800  81.3000 C     1    CU   0.0000
1571    Cu  34.3100  34.2700  79.5600 C     1    CU   0.0000
1572    Cu  34.3300  34.2800  83.0900 C     1    CU   0.0000
1573    Cu  36.1400  32.5300  79.4300 C     1    CU   0.0000
1574    Cu  36.1500  32.4800  83.0900 C     1    CU   0.0000
1575    Cu  36.1500  34.2900  81.3100 C     1    CU   0.0000
1576    Cu  37.9500  32.5000  81.3000 C     1    CU   0.0000
1577    Cu  37.9700  34.3100  79.5100 C     1    CU   0.0000
1578    Cu  37.9600  34.2900  83.0900 C     1    CU   0.0000
1579    Cu  39.7600  32.5300  79.5200 C     1    CU   0.0000
1580    Cu  39.7600  32.5000  83.0900 C     1    CU   0.0000
1581    Cu  39.7800  34.3100  81.3100 C     1    CU   0.0000
1582    Cu  41.5700  32.5100  81.2800 C     1    CU   0.0000
1583    Cu  41.5800  34.3100  79.4300 C     1    CU   0.0000
1584    Cu  41.5700  34.3100  83.0900 C     1    CU   0.0000
1585    Cu   0.0200  36.1300  79.4300 C     1    CU   0.0000
1586    Cu   0.0900  36.1300  83.0800 C     1    CU   0.0000
1587    Cu   0.1000  37.9300  81.2800 C     1    CU   0.0000
1588    Cu   1.7700  36.1200  81.3100 C     1    CU   0.0000
1589    Cu   1.8300  37.9500  79.5500 C     1    CU   0.0000
1590    Cu   1.7600  37.9400  83.1000 C     1    CU   0.0000
1591    Cu   3.5800  36.1400  79.5800 C     1    CU   0.0000
1592    Cu   3.5700  36.1400  83.1100 C     1    CU   0.0000
1593    Cu   3.6100  37.9600  81.3400 C     1    CU   0.0000
1594    Cu   5.4100  36.1400  81.3400 C     1    CU   0.0000
1595    Cu   5.4100  37.9400  79.5000 C     1    CU   0.0000
1596    Cu   5.4100  37.9400  83.1400 C     1    CU   0.0000
1597    Cu   7.2100  36.1200  79.5200 C     1    CU   0.0000
1598    Cu   7.2100  36.1300  83.1500 C     1    CU   0.0000
1599    Cu   7.2200  37.9500  81.3200 C     1    CU   0.0000
1600    Cu   9.0200  36.1400  81.3500 C     1    CU   0.0000
1601    Cu   9.0200  37.9400  79.4800 C     1    CU   0.0000
1602    Cu   9.0300  37.9400  83.1400 C     1    CU   0.0000
1603    Cu  10.8100  36.1300  79.5400 C     1    CU   0.0000
1604    Cu  10.8400  36.1300  83.1300 C     1    CU   0.0000
1605    Cu  10.8200  37.9600  81.3300 C     1    CU   0.0000
1606    Cu  12.6300  36.1400  81.3200 C     1    CU   0.0000
1607    Cu  12.6300  37.9700  79.5100 C     1    CU   0.0000
1608    Cu  12.6500  37.9500  83.1200 C     1    CU   0.0000
1609    Cu  14.4300  36.1600  79.5300 C     1    CU   0.0000
1610    Cu  14.4600  36.1200  83.0800 C     1    CU   0.0000
1611    Cu  14.4400  37.9600  81.3300 C     1    CU   0.0000
1612    Cu  16.2600  36.1300  81.3000 C     1    CU   0.0000
1613    Cu  16.2900  37.9700  79.5800 C     1    CU   0.0000
1614    Cu  16.2700  37.9500  83.0900 C     1    CU   0.0000
1615    Cu  18.0600  36.1400  79.4400 C     1    CU   0.0000
1616    Cu  18.0700  36.1200  83.0700 C     1    CU   0.0000
1617    Cu  18.0800  37.9500  81.3100 C     1    CU   0.0000
1618    Cu  19.8700  36.1200  81.2700 C     1    CU   0.0000
1619    Cu  19.8800  37.9400  79.5200 C     1    CU   0.0000
1620    Cu  19.8800  37.9400  83.0600 C     1    CU   0.0000
1621    Cu  21.6700  36.1400  79.4700 C     1    CU   0.0000
1622    Cu  21.6600  36.1200  83.0600 C     1    CU   0.0000
1623    Cu  21.6900  37.9400  81.2900 C     1    CU   0.0000
1624    Cu  23.4900  36.1300  81.2800 C     1    CU   0.0000
1625    Cu  23.5000  37.9400  79.4700 C     1    CU   0.0000
1626    Cu  23.4700  37.9300  83.0900 C     1    CU   0.0000
1627    Cu  25.3200  36.1200  79.4700 C     1    CU   0.0000
1628    Cu  25.2700  36.1300  83.1000 C     1    CU   0.0000
1629    Cu  25.3000  37.9400  81.2900 C     1    CU   0.0000
1630    Cu  27.1000  36.1300  81.3100 C     1    CU   0.0000
1631    Cu  27.1100  37.9300  79.4400 C     1    CU   0.0000
1632    Cu  27.1000  37.9400  83.1000 C     1    CU   0.0000
1633    Cu  28.9100  36.1200  79.5200 C     1    CU   0.0000
1634    Cu  28.9100  36.1300  83.1000 C     1    CU   0.0000
1635    Cu  28.9100  37.9400  81.2900 C     1    CU   0.0000
1636    Cu  30.7200  36.1200  81.3000 C     1    CU   0.0000
1637    Cu  30.7400  37.9500  79.4600 C     1    CU   0.0000
1638    Cu  30.7100  37.9400  83.1100 C     1    CU   0.0000
1639    Cu  32.5400  36.1200  79.4600 C     1    CU   0.0000
1640    Cu  32.5300  36.1100  83.1100 C     1    CU   0.0000
1641    Cu  32.5200  37.9000  81.3300 C     1    CU   0.0000
1642    Cu  34.3400  36.0900  81.3300 C     1    CU   0.0000
1643    Cu  34.3800  37.9000  79.6100 C     1    CU   0.0000
1644    Cu  34.3600  37.9300  83.0900 C     1    CU   0.0000
1645    Cu  36.1400  36.0800  79.4900 C     1    CU   0.0000
1646    Cu  36.1600  36.1000  83.1000 C     1    CU   0.0000
1647    Cu  36.1800  37.9100  81.3300 C     1    CU   0.0000
1648    Cu  37.9600  36.0900  81.3100 C     1    CU   0.0000
1649    Cu  37.9500  37.8600  79.5300 C     1    CU   0.0000
1650    Cu  37.9900  37.9200  83.0600 C     1    CU   0.0000
1651    Cu  39.7900  36.1000  79.5200 C     1    CU   0.0000
1652    Cu  39.7800  36.1200  83.0700 C     1    CU   0.0000
1653    Cu  39.7800  37.9200  81.2700 C     1    CU   0.0000
1654    Cu  41.5900  36.1200  81.2700 C     1    CU   0.0000
1655    Cu  41.5800  37.9300  79.4200 C     1    CU   0.0000
1656    Cu  41.5500  37.9400  83.0600 C     1    CU   0.0000
1657    Cu   0.1200  39.7600  79.5300 C     1    CU   0.0000
1658    Cu   0.0700  39.7500  83.0600 C     1    CU   0.0000
1659    Cu   0.1000  41.5600  81.2800 C     1    CU   0.0000
1660    Cu   1.8000  39.7500  81.3300 C     1    CU   0.0000
1661    Cu   1.8200  41.5300  79.5300 C     1    CU   0.0000
1662    Cu   1.7400  41.5500  83.1200 C     1    CU   0.0000
1663    Cu   3.6300  39.7600  79.4900 C     1    CU   0.0000
1664    Cu   3.5800  39.7400  83.1500 C     1    CU   0.0000
1665    Cu   3.6000  41.5300  81.3800 C     1    CU   0.0000
1666    Cu   5.4200  39.7400  81.3500 C     1    CU   0.0000
1667    Cu   5.4300  41.5700  79.6300 C     1    CU   0.0000
1668    Cu   5.4200  41.5400  83.1600 C     1    CU   0.0000
1669    Cu   7.2100  39.7600  79.4800 C     1    CU   0.0000
1670    Cu   7.2400  39.7400  83.1500 C     1    CU   0.0000
1671    Cu   7.2500  41.5500  81.3600 C     1    CU   0.0000
1672    Cu   9.0300  39.7600  81.3100 C     1    CU   0.0000
1673    Cu   9.0100  41.5800  79.4700 C     1    CU   0.0000
1674    Cu   9.0600  41.5700  83.1400 C     1    CU   0.0000
1675    Cu  10.8200  39.7700  79.4700 C     1    CU   0.0000
1676    Cu  10.8400  39.7700  83.1300 C     1    CU   0.0000
1677    Cu  10.8300  41.5900  81.3100 C     1    CU   0.0000
1678    Cu  12.6100  39.7800  81.3400 C     1    CU   0.0000
1679    Cu  12.6300  41.5900  79.4800 C     1    CU   0.0000
1680    Cu  12.6500  41.6100  83.1200 C     1    CU   0.0000
1681    Cu  14.4500  39.8400  79.6300 C     1    CU   0.0000
1682    Cu  14.4600  39.8000  83.1000 C     1    CU   0.0000
1683    Cu  14.4600  41.6400  81.3300 C     1    CU   0.0000
1684    Cu  16.2800  39.8000  81.3400 C     1    CU   0.0000
1685    Cu  16.2800  41.5900  79.4700 C     1    CU   0.0000
1686    Cu  16.2900  41.6200  83.1000 C     1    CU   0.0000
1687    Cu  18.0700  39.7700  79.5100 C     1    CU   0.0000
1688    Cu  18.0900  39.7700  83.0900 C     1    CU   0.0000
1689    Cu  18.0900  41.5900  81.2900 C     1    CU   0.0000
1690    Cu  19.8800  39.7700  81.2900 C     1    CU   0.0000
1691    Cu  19.8900  41.5700  79.4300 C     1    CU   0.0000
1692    Cu  19.8800  41.5700  83.0900 C     1    CU   0.0000
1693    Cu  21.6700  39.7500  79.4600 C     1    CU   0.0000
1694    Cu  21.6800  39.7500  83.0800 C     1    CU   0.0000
1695    Cu  21.6900  41.5600  81.2800 C     1    CU   0.0000
1696    Cu  23.4900  39.7500  81.2800 C     1    CU   0.0000
1697    Cu  23.4900  41.5600  79.4700 C     1    CU   0.0000
1698    Cu  23.4800  41.5500  83.0800 C     1    CU   0.0000
1699    Cu  25.3100  39.7400  79.4500 C     1    CU   0.0000
1700    Cu  25.2900  39.7400  83.0900 C     1    CU   0.0000
1701    Cu  25.3000  41.5500  81.2800 C     1    CU   0.0000
1702    Cu  27.1100  39.7400  81.2800 C     1    CU   0.0000
1703    Cu  27.1000  41.5600  79.4500 C     1    CU   0.0000
1704    Cu  27.0900  41.5500  83.0900 C     1    CU   0.0000
1705    Cu  28.9200  39.7500  79.4400 C     1    CU   0.0000
1706    Cu  28.8900  39.7500  83.1000 C     1    CU   0.0000
1707    Cu  28.9000  41.5600  81.2800 C     1    CU   0.0000
1708    Cu  30.6900  39.7500  81.3200 C     1    CU   0.0000
1709    Cu  30.7400  41.5600  79.4900 C     1    CU   0.0000
1710    Cu  30.7200  41.5600  83.1000 C     1    CU   0.0000
1711    Cu  32.5600  39.7700  79.6800 C     1    CU   0.0000
1712    Cu  32.5400  39.7500  83.0800 C     1    CU   0.0000
1713    Cu  32.5400  41.6000  81.3300 C     1    CU   0.0000
1714    Cu  34.3900  39.7500  81.3500 C     1    CU   0.0000
1715    Cu  34.3500  41.5400  79.5000 C     1    CU   0.0000
1716    Cu  34.3900  41.5600  83.0900 C     1    CU   0.0000
1717    Cu  36.1400  39.7200  79.4900 C     1    CU   0.0000
1718    Cu  36.2100  39.7500  83.0700 C     1    CU   0.0000
1719    Cu  36.1800  41.5500  81.2700 C     1    CU   0.0000
1720    Cu  37.9700  39.7400  81.2500 C     1    CU   0.0000
1721    Cu  37.9500  41.5400  79.3900 C     1    CU   0.0000
1722    Cu  38.0000  41.5500  83.0300 C     1    CU   0.0000
1723    Cu  39.7500  39.7100  79.4100 C     1    CU   0.0000
1724    Cu  39.7600  39.7500  83.0300 C     1    CU   0.0000
1725    Cu  39.7600  41.5500  81.2000 C     1    CU   0.0000
1726    Cu  41.5400  39.7400  81.2400 C     1    CU   0.0000
1727    Cu  41.5700  41.5500  79.3900 C     1    CU   0.0000
1728    Cu  41.5300  41.5500  83.0200 C     1    CU   0.0000
1729     C  20.6800   3.3000  12.0100 C     1   MOL  -0.0931
1730    C1  20.4700   2.4300  10.7600 C     1   MOL  -0.0804
1731    C2  21.6700   2.4500   9.7600 C     1   MOL  -0.0784
1732    C3  22.0400   3.8000   9.1300 C     1   MOL  -0.0834
1733    C4  21.4300   4.0600   7.7400 C     1   MOL  -0.0864
1734    C5  22.0100   5.3300   7.0400 C     1   MOL   0.0087
1735     S  23.8100   5.4400   6.7500 S     1   MOL  -0.3829
1736     H  19.8100   3.1200  12.6600 H     1   MOL   0.0334
1737    H1  20.6000   4.4000  11.9900 H     1   MOL   0.0334
1738    H2  21.6300   3.0600  12.5000 H     1   MOL   0.0334
1739    H3  19.5600   2.7100  10.2200 H     1   MOL   0.0387
1740    H4  20.3700   1.3700  11.0000 H     1   MOL   0.0387
1741    H5  21.6500   1.6100   9.0600 H     1   MOL   0.0422
1742    H6  22.5400   2.1800  10.3700 H     1   MOL   0.0422
1743    H7  23.1300   3.9800   9.1100 H     1   MOL   0.0392
1744    H8  21.7400   4.6400   9.7600 H     1   MOL   0.0392
1745    H9  20.3600   4.1600   7.9300 H     1   MOL   0.0552
1746   H10  21.6900   3.1600   7.1700 H     1   MOL   0.0552
1747   H11  21.8200   6.2500   7.6100 H     1   MOL   0.0722
1748   H12  21.5600   5.4000   6.0400 H     1   MOL   0.0722
1749   H13  24.0500   4.1600   6.3900 H     1   MOL   0.2008
1750     C   3.2600   2.8500   8.8700 C     1   MOL  -0.0931
1751    C1   2.9800   3.9300   7.7700 C     1   MOL  -0.0804
1752    C2   4.2100   4.5400   7.0100 C     1   MOL  -0.0784
1753    C3   5.0000   5.4900   7.8500 C     1   MOL  -0.0834
1754    C4   6.2000   5.9200   7.0800 C     1   MOL  -0.0864
1755    C5   7.2500   6.6900   7.8700 C     1   MOL   0.0087
1756     S   7.9900   7.8400   6.6100 S     1   MOL  -0.3829
1757     H   3.6700   3.2600   9.8100 H     1   MOL   0.0334
1758    H1   3.9900   2.1100   8.5200 H     1   MOL   0.0334
1759    H2   2.3400   2.2700   9.0200 H     1   MOL   0.0334
1760    H3   2.3800   4.7200   8.2300 H     1   MOL   0.0387
1761    H4   2.4100   3.4700   6.9500 H     1   MOL   0.0387
1762    H5   3.9900   5.1400   6.1200 H     1   MOL   0.0422
1763    H6   4.8600   3.7000   6.7500 H     1   MOL   0.0422
1764    H7   5.3100   4.9800   8.7700 H     1   MOL   0.0392
1765    H8   4.3200   6.2700   8.2400 H     1   MOL   0.0392
1766    H9   5.8400   6.5600   6.2700 H     1   MOL   0.0552
1767   H10   6.7400   5.0800   6.6200 H     1   MOL   0.0552
1768   H11   7.8600   6.0400   8.5100 H     1   MOL   0.0722
1769   H12   6.8400   7.4900   8.5100 H     1   MOL   0.0722
1770   H13   9.0000   8.3500   7.3400 H     1   MOL   0.2008
1771     C  32.4900  15.3000  12.6200 C     1   MOL  -0.0931
1772    C1  31.8400  15.0200  11.2600 C     1   MOL  -0.0804
1773    C2  32.5100  13.8100  10.5400 C     1   MOL  -0.0784
1774    C3  31.9800  13.6700   9.0900 C     1   MOL  -0.0834
1775    C4  32.7500  12.5600   8.3400 C     1   MOL  -0.0864
1776    C5  32.3500  12.3800   6.8600 C     1   MOL   0.0087
1777     S  30.6700  11.8000   6.6600 S     1   MOL  -0.3829
1778     H  33.5800  15.1800  12.5700 H     1   MOL   0.0334
1779    H1  32.1400  14.6600  13.4300 H     1   MOL   0.0334
1780    H2  32.2100  16.2400  13.1300 H     1   MOL   0.0334
1781    H3  31.9300  15.9200  10.6500 H     1   MOL   0.0387
1782    H4  30.7800  14.7900  11.4500 H     1   MOL   0.0387
1783    H5  32.2500  12.8900  11.0900 H     1   MOL   0.0422
1784    H6  33.6100  13.7800  10.5300 H     1   MOL   0.0422
1785    H7  32.1900  14.6100   8.5700 H     1   MOL   0.0392
1786    H8  30.8900  13.5300   9.0200 H     1   MOL   0.0392
1787    H9  32.5900  11.5900   8.8400 H     1   MOL   0.0552
1788   H10  33.7900  12.8800   8.3800 H     1   MOL   0.0552
1789   H11  33.0600  11.6900   6.3800 H     1   MOL   0.0722
1790   H12  32.4200  13.3900   6.4300 H     1   MOL   0.0722
1791   H13  30.5700  11.3800   5.3900 H     1   MOL   0.2008
1792     C  12.3000  11.0400  11.4700 C     1   MOL  -0.0931
1793    C1  12.8200  11.7700  10.1900 C     1   MOL  -0.0804
1794    C2  13.5200  13.0800  10.5000 C     1   MOL  -0.0784
1795    C3  14.4500  13.7000   9.4200 C     1   MOL  -0.0834
1796    C4  13.7400  14.3400   8.2300 C     1   MOL  -0.0864
1797    C5  14.5500  15.2400   7.2600 C     1   MOL   0.0087
1798     S  15.9500  14.3400   6.4400 S     1   MOL  -0.3829
1799     H  11.6600  10.1800  11.2200 H     1   MOL   0.0334
1800    H1  11.6300  11.7100  12.0200 H     1   MOL   0.0334
1801    H2  13.1200  10.7000  12.1100 H     1   MOL   0.0334
1802    H3  12.0200  11.9600   9.4600 H     1   MOL   0.0387
1803    H4  13.5100  11.0900   9.6800 H     1   MOL   0.0387
1804    H5  14.1300  12.9400  11.4000 H     1   MOL   0.0422
1805    H6  12.7600  13.8400  10.7100 H     1   MOL   0.0422
1806    H7  15.1700  12.9700   9.0500 H     1   MOL   0.0392
1807    H8  15.1000  14.4700   9.8600 H     1   MOL   0.0392
1808    H9  12.8900  14.9400   8.6000 H     1   MOL   0.0552
1809   H10  13.2500  13.5800   7.6100 H     1   MOL   0.0552
1810   H11  14.9300  16.1600   7.7100 H     1   MOL   0.0722
1811   H12  13.8200  15.4700   6.4700 H     1   MOL   0.0722
1812   H13  16.3200  15.3500   5.6200 H     1   MOL   0.2008
1813     C  31.7700  18.6100  10.8900 C     1   MOL  -0.0931
1814    C1  31.4900  20.1200  10.8500 C     1   MOL  -0.0804
1815    C2  31.9900  20.7200   9.5600 C     1   MOL  -0.0784
1816    C3  33.5400  21.0200   9.4800 C     1   MOL  -0.0834
1817    C4  34.1000  21.5900   8.1900 C     1   MOL  -0.0864
1818    C5  33.6100  20.9400   6.8700 C     1   MOL   0.0087
1819     S  33.9200  19.2100   6.6900 S     1   MOL  -0.3829
1820     H  31.4600  18.1200   9.9500 H     1   MOL   0.0334
1821    H1  31.2400  18.1900  11.7600 H     1   MOL   0.0334
1822    H2  32.8500  18.5700  11.0600 H     1   MOL   0.0334
1823    H3  32.0100  20.6700  11.6400 H     1   MOL   0.0387
1824    H4  30.4100  20.1500  11.0200 H     1   MOL   0.0387
1825    H5  31.4300  21.6400   9.3500 H     1   MOL   0.0422
1826    H6  31.8000  20.0900   8.6800 H     1   MOL   0.0422
1827    H7  34.0100  20.0600   9.7400 H     1   MOL   0.0392
1828    H8  33.8400  21.7400  10.2500 H     1   MOL   0.0392
1829    H9  35.1700  21.5700   8.4200 H     1   MOL   0.0552
1830   H10  33.7200  22.6100   8.0500 H     1   MOL   0.0552
1831   H11  34.0700  21.4400   6.0200 H     1   MOL   0.0722
1832   H12  32.5500  21.1300   6.6700 H     1   MOL   0.0722
1833   H13  35.2600  19.2000   6.5400 H     1   MOL   0.2008
1834     C   9.1100  25.6400  10.6700 C     1   MOL  -0.0931
1835    C1   8.0000  24.8200  11.3500 C     1   MOL  -0.0804
1836    C2   7.9400  23.3900  10.9600 C     1   MOL  -0.0784
1837    C3   8.1100  23.0300   9.4900 C     1   MOL  -0.0834
1838    C4   7.1900  23.6900   8.4900 C     1   MOL  -0.0864
1839    C5   7.4400  23.2000   7.0300 C     1   MOL   0.0087
1840     S   6.8600  21.5000   6.8200 S     1   MOL  -0.3829
1841     H   9.0300  26.7100  10.8800 H     1   MOL   0.0334
1842    H1   8.9900  25.6000   9.5800 H     1   MOL   0.0334
1843    H2  10.0900  25.3300  11.0400 H     1   MOL   0.0334
1844    H3   7.0200  25.2300  11.0900 H     1   MOL   0.0387
1845    H4   8.0000  24.8700  12.4500 H     1   MOL   0.0387
1846    H5   6.9100  23.1100  11.2100 H     1   MOL   0.0422
1847    H6   8.5600  22.7600  11.6100 H     1   MOL   0.0422
1848    H7   8.0700  21.9400   9.3100 H     1   MOL   0.0392
1849    H8   9.1000  23.3200   9.1300 H     1   MOL   0.0392
1850    H9   7.2900  24.7800   8.6000 H     1   MOL   0.0552
1851   H10   6.1500  23.6700   8.8300 H     1   MOL   0.0552
1852   H11   8.5200  23.2400   6.8300 H     1   MOL   0.0722
1853   H12   6.9900  23.9600   6.3900 H     1   MOL   0.0722
1854   H13   5.6500  21.8000   6.2900 H     1   MOL   0.2008
1855     C  16.2000  18.7900   6.9200 C     1   MOL  -0.0931
1856    C1  17.1300  19.9700   6.7900 C     1   MOL  -0.0804
1857    C2  17.7500  20.4200   8.1700 C     1   MOL  -0.0784
1858    C3  18.7600  21.5700   8.1100 C     1   MOL  -0.0834
1859    C4  19.9800  21.3400   7.1300 C     1   MOL  -0.0864
1860    C5  21.0100  22.5000   7.1600 C     1   MOL   0.0087
1861     S  20.1900  24.1100   6.6900 S     1   MOL  -0.3829
1862     H  15.5400  18.6300   6.0600 H     1   MOL   0.0334
1863    H1  15.5500  18.9900   7.7800 H     1   MOL   0.0334
1864    H2  16.7500  17.8500   7.0900 H     1   MOL   0.0334
1865    H3  16.5100  20.6800   6.2300 H     1   MOL   0.0387
1866    H4  18.0000  19.7300   6.1600 H     1   MOL   0.0387
1867    H5  18.2500  19.6400   8.7600 H     1   MOL   0.0422
1868    H6  16.9300  20.6300   8.8800 H     1   MOL   0.0422
1869    H7  19.1500  21.8400   9.1000 H     1   MOL   0.0392
1870    H8  18.1900  22.3700   7.6200 H     1   MOL   0.0392
1871    H9  19.5300  21.4000   6.1400 H     1   MOL   0.0552
1872   H10  20.5300  20.4100   7.3400 H     1   MOL   0.0552
1873   H11  21.8000  22.3700   6.4100 H     1   MOL   0.0722
1874   H12  21.5100  22.5800   8.1300 H     1   MOL   0.0722
1875   H13  19.2200  24.1100   7.6300 H     1   MOL   0.2008
1876     C  35.5500  35.1000   8.6800 C     1   MOL  -0.0931
1877    C1  34.9900  34.9200   7.2700 C     1   MOL  -0.0804
1878    C2  33.5200  34.3900   7.2200 C     1   MOL  -0.0784
1879    C3  33.5000  32.8700   7.2400 C     1   MOL  -0.0834
1880    C4  32.0500  32.3800   7.1900 C     1   MOL  -0.0864
1881    C5  31.9700  30.9200   6.9000 C     1   MOL   0.0087
1882     S  30.1800  30.4300   6.7100 S     1   MOL  -0.3829
1883     H  34.7600  35.6100   9.2500 H     1   MOL   0.0334
1884    H1  36.3600  35.8300   8.6300 H     1   MOL   0.0334
1885    H2  35.8900  34.1900   9.1800 H     1   MOL   0.0334
1886    H3  35.6800  34.3300   6.6600 H     1   MOL   0.0387
1887    H4  35.0700  35.9400   6.8700 H     1   MOL   0.0387
1888    H5  33.0700  34.7500   6.2800 H     1   MOL   0.0422
1889    H6  32.9200  34.7400   8.0700 H     1   MOL   0.0422
1890    H7  34.1200  32.4800   8.0600 H     1   MOL   0.0392
1891    H8  34.0000  32.4200   6.3600 H     1   MOL   0.0392
1892    H9  31.4600  32.9600   6.4700 H     1   MOL   0.0552
1893   H10  31.4800  32.5900   8.1000 H     1   MOL   0.0552
1894   H11  32.5200  30.3600   7.6700 H     1   MOL   0.0722
1895   H12  32.3800  30.8300   5.8900 H     1   MOL   0.0722
1896   H13  29.7400  30.5000   7.9800 H     1   MOL   0.2008
1897     C   8.2600  30.9900  12.7700 C     1   MOL  -0.0931
1898    C1   8.9800  30.6000  11.5000 C     1   MOL  -0.0804
1899    C2   9.5400  31.9300  10.8600 C     1   MOL  -0.0784
1900    C3   9.9700  31.6800   9.3500 C     1   MOL  -0.0834
1901    C4  10.1700  33.0800   8.6200 C     1   MOL  -0.0864
1902    C5  10.1700  32.8600   7.0800 C     1   MOL   0.0087
1903     S  11.8400  32.1500   6.6200 S     1   MOL  -0.3829
1904     H   7.5000  31.7500  12.5400 H     1   MOL   0.0334
1905    H1   8.8800  31.4700  13.5400 H     1   MOL   0.0334
1906    H2   7.7600  30.1300  13.2200 H     1   MOL   0.0334
1907    H3   8.1900  30.1600  10.8900 H     1   MOL   0.0387
1908    H4   9.7400  29.8300  11.6900 H     1   MOL   0.0387
1909    H5  10.4400  32.2700  11.3800 H     1   MOL   0.0422
1910    H6   8.7600  32.7000  10.8400 H     1   MOL   0.0422
1911    H7   9.1700  31.1000   8.8800 H     1   MOL   0.0392
1912    H8  10.8600  31.0500   9.2300 H     1   MOL   0.0392
1913    H9  11.1400  33.4300   8.9800 H     1   MOL   0.0552
1914   H10   9.4300  33.8200   8.9400 H     1   MOL   0.0552
1915   H11  10.0500  33.8100   6.5600 H     1   MOL   0.0722
1916   H12   9.3600  32.2000   6.7500 H     1   MOL   0.0722
1917   H13  12.5100  33.3100   6.7500 H     1   MOL   0.2008
1918     C  20.9600  36.7300  11.4800 C     1   MOL  -0.0931
1919    C1  20.0700  37.8900  10.9400 C     1   MOL  -0.0804
1920    C2  20.5400  38.1000   9.5000 C     1   MOL  -0.0784
1921    C3  20.1900  36.9300   8.5600 C     1   MOL  -0.0834
1922    C4  20.4100  37.3000   7.0100 C     1   MOL  -0.0864
1923    C5  21.9200  37.5900   6.6900 C     1   MOL   0.0087
1924     S  22.9800  36.0900   6.5300 S     1   MOL  -0.3829
1925     H  20.7100  36.5200  12.5300 H     1   MOL   0.0334
1926    H1  22.0400  36.9200  11.4300 H     1   MOL   0.0334
1927    H2  20.8500  35.8000  10.9200 H     1   MOL   0.0334
1928    H3  20.3000  38.7600  11.5700 H     1   MOL   0.0387
1929    H4  19.0000  37.6900  11.0100 H     1   MOL   0.0387
1930    H5  21.5900  38.4200   9.4500 H     1   MOL   0.0422
1931    H6  19.8500  38.8200   9.0500 H     1   MOL   0.0422
1932    H7  19.1400  36.6300   8.7200 H     1   MOL   0.0392
1933    H8  20.8400  36.0900   8.8300 H     1   MOL   0.0392
1934    H9  19.7800  38.1100   6.6200 H     1   MOL   0.0552
1935   H10  20.1800  36.4200   6.4100 H     1   MOL   0.0552
1936   H11  22.2700  38.3000   7.4500 H     1   MOL   0.0722
1937   H12  22.0000  38.0900   5.7200 H     1   MOL   0.0722
1938   H13  22.8500  35.7300   7.8200 H     1   MOL   0.2008
1939     C  40.2600  23.9500  35.4300 C     1   CO2   0.6512
1940    O1  39.4100  24.6000  35.0000 O     1   CO2  -0.3256
1941    O2  41.1000  23.2900  35.8400 O     1   CO2  -0.3256
1942     C  29.9400  14.3200  47.6400 C     1   CO2   0.6512
1943    O1  28.9000  14.7700  47.8600 O     1   CO2  -0.3256
1944    O2  30.9800  13.9000  47.4300 O     1   CO2  -0.3256
1945     C   3.0200  41.4900  28.7500 C     1   CO2   0.6512
1946    O1   3.5200  41.4500  27.7200 O     1   CO2  -0.3256
1947    O2   2.5400  41.5900  29.7900 O     1   CO2  -0.3256
1948     C  11.9900  42.7700  71.8400 C     1   CO2   0.6512
1949    O1  12.8000  43.1800  71.1300 O     1   CO2  -0.3256
1950    O2  11.1800  42.3400  72.5300 O     1   CO2  -0.3256
1951     C   7.0400  20.1500  22.4100 C     1   CO2   0.6512
1952    O1   7.4500  20.6000  23.3800 O     1   CO2  -0.3256
1953    O2   6.5900  19.6600  21.4700 O     1   CO2  -0.3256
1954     C   5.8700  28.5000  24.5300 C     1   CO2   0.6512
1955    O1   5.2200  29.2300  25.1500 O     1   CO2  -0.3256
1956    O2   6.4900  27.7500  23.9300 O     1   CO2  -0.3256
1957     C   0.7900  30.0500  30.7100 C     1   CO2   0.6512
1958    O1   1.5500  30.6900  31.2900 O     1   CO2  -0.3256
1959    O2   0.0200  29.4200  30.1400 O     1   CO2  -0.3256
1960     C   6.7300   3.8200  18.5800 C     1   CO2   0.6512
1961    O1   6.6900   4.9600  18.6000 O     1   CO2  -0.3256
1962    O2   6.7800   2.6700  18.6200 O     1   CO2  -0.3256
1963     C  17.6500   7.6000  48.3500 C     1   CO2   0.6512
1964    O1  17.7100   6.7300  49.0900 O     1   CO2  -0.3256
1965    O2  17.6800   8.4800  47.6100 O     1   CO2  -0.3256
1966     C   3.5400  30.1500  28.3100 C     1   CO2   0.6512
1967    O1   4.5200  30.7400  28.3800 O     1   CO2  -0.3256
1968    O2   2.5600  29.5500  28.2300 O     1   CO2  -0.3256
1969     C  13.8300  17.8600  38.3300 C     1   CO2   0.6512
1970    O1  13.5800  18.9500  38.0600 O     1   CO2  -0.3256
1971    O2  14.0400  16.7700  38.6200 O     1   CO2  -0.3256
1972     C   8.1700  23.7800  69.0200 C     1   CO2   0.6512
1973    O1   9.0100  23.0100  69.1200 O     1   CO2  -0.3256
1974    O2   7.2800  24.5200  69.0400 O     1   CO2  -0.3256
1975     C   1.3300   6.0300  15.9700 C     1   CO2   0.6512
1976    O1   1.9600   6.9100  16.3300 O     1   CO2  -0.3256
1977    O2   0.6900   5.1300  15.6400 O     1   CO2  -0.3256
1978     C  19.4700  13.0800  72.2500 C     1   CO2   0.6512
1979    O1  19.7900  12.0700  72.6900 O     1   CO2  -0.3256
1980    O2  19.2000  14.0800  71.7500 O     1   CO2  -0.3256
1981     C   9.0600  41.1800   6.7000 C     1   CO2   0.6512
1982    O1   7.9200  41.0600   6.8200 O     1   CO2  -0.3256
1983    O2  10.1800  41.4100   6.6400 O     1   CO2  -0.3256
1984     C  29.5700  12.5800  40.3700 C     1   CO2   0.6512
1985    O1  30.6900  12.4200  40.1800 O     1   CO2  -0.3256
1986    O2  28.4700  12.7800  40.6300 O     1   CO2  -0.3256
1987     C   5.1100  21.6900  25.8500 C     1   CO2   0.6512
1988    O1   5.7900  20.8000  26.0800 O     1   CO2  -0.3256
1989    O2   4.4100  22.5900  25.6700 O     1   CO2  -0.3256
1990     C   0.0600   8.7000  56.1300 C     1   CO2   0.6512
1991    O1   0.9800   8.1400  56.5300 O     1   CO2  -0.3256
1992    O2  -0.8900   9.2300  55.7700 O     1   CO2  -0.3256
1993     C  33.4300   2.2700  47.9500 C     1   CO2   0.6512
1994    O1  32.9500   1.7800  47.0300 O     1   CO2  -0.3256
1995    O2  33.9700   2.7800  48.8300 O     1   CO2  -0.3256
1996     C   3.9200   9.3300  56.5600 C     1   CO2   0.6512
1997    O1   3.4800  10.1400  55.8700 O     1   CO2  -0.3256
1998    O2   4.3000   8.4700  57.2300 O     1   CO2  -0.3256
1999     C  26.5900  11.1400  38.5800 C     1   CO2   0.6512
2000    O1  26.4200  11.7700  37.6400 O     1   CO2  -0.3256
2001    O2  26.7800  10.4800  39.5000 O     1   CO2  -0.3256
2002     C   6.5800  21.2200  32.9200 C     1   CO2   0.6512
2003    O1   6.1900  20.3200  33.5100 O     1   CO2  -0.3256
2004    O2   7.0200  22.0500  32.2500 O     1   CO2  -0.3256
2005     C  18.5600  29.2000  38.0600 C     1   CO2   0.6512
2006    O1  19.0100  28.8700  39.0700 O     1   CO2  -0.3256
2007    O2  18.0300  29.5100  37.1000 O     1   CO2  -0.3256
2008     C  21.5500   0.0900  55.6800 C     1   CO2   0.6512
2009    O1  21.2200   0.8900  54.9300 O     1   CO2  -0.3256
2010    O2  21.8900  -0.7400  56.4000 O     1   CO2  -0.3256
2011     C  14.8300  40.2000  28.2300 C     1   CO2   0.6512
2012    O1  14.7200  40.4300  27.1100 O     1   CO2  -0.3256
2013    O2  14.9200  40.0400  29.3700 O     1   CO2  -0.3256
2014     C  36.8000  38.3900  37.7600 C     1   CO2   0.6512
2015    O1  37.6200  39.1300  38.0700 O     1   CO2  -0.3256
2016    O2  35.9800  37.6400  37.4600 O     1   CO2  -0.3256
2017     C   6.4900  18.0000  70.1100 C     1   CO2   0.6512
2018    O1   6.6800  18.4600  69.0700 O     1   CO2  -0.3256
2019    O2   6.2800  17.5800  71.1600 O     1   CO2  -0.3256
2020     C   4.9300   2.2400  42.9700 C     1   CO2   0.6512
2021    O1   4.6000   1.3300  42.3500 O     1   CO2  -0.3256
2022    O2   5.2500   3.1500  43.6000 O     1   CO2  -0.3256
2023     C  42.8200   3.0300  21.6300 C     1   CO2   0.6512
2024    O1  42.3700   4.0800  21.4800 O     1   CO2  -0.3256
2025    O2  43.2200   1.9600  21.7700 O     1   CO2  -0.3256
2026     C  28.0800   6.3200  45.7300 C     1   CO2   0.6512
2027    O1  28.5300   6.4600  44.6800 O     1   CO2  -0.3256
2028    O2  27.6800   6.1500  46.7900 O     1   CO2  -0.3256
2029     C  43.0900   4.4600  18.6900 C     1   CO2   0.6512
2030    O1  43.4100   5.5400  18.9500 O     1   CO2  -0.3256
2031    O2  42.7800   3.3700  18.5300 O     1   CO2  -0.3256
2032     C  25.9900  31.7500  32.9000 C     1   CO2   0.6512
2033    O1  26.9700  31.6400  32.3100 O     1   CO2  -0.3256
2034    O2  25.0100  31.7500  33.4900 O     1   CO2  -0.3256
2035     C  29.4400  11.9800  44.3800 C     1   CO2   0.6512
2036    O1  29.2000  11.0900  43.7000 O     1   CO2  -0.3256
2037    O2  29.6900  12.8700  45.0600 O     1   CO2  -0.3256
2038     C  20.1400  30.8600  14.9100 C     1   CO2   0.6512
2039    O1  20.0100  29.8300  15.4100 O     1   CO2  -0.3256
2040    O2  20.2800  31.8800  14.4100 O     1   CO2  -0.3256
2041     C  25.3000  42.4400  59.1400 C     1   CO2   0.6512
2042    O1  26.1000  42.4500  58.3200 O     1   CO2  -0.3256
2043    O2  24.5000  42.5000  59.9700 O     1   CO2  -0.3256
2044     C  41.1800  31.2000   9.6200 C     1   CO2   0.6512
2045    O1  42.2900  31.4800   9.6600 O     1   CO2  -0.3256
2046    O2  40.0700  30.9000   9.5400 O     1   CO2  -0.3256
2047     C  29.5300   9.6300  47.4900 C     1   CO2   0.6512
2048    O1  30.2500  10.4800  47.2400 O     1   CO2  -0.3256
2049    O2  28.8400   8.7400  47.7200 O     1   CO2  -0.3256
2050     C  18.6300  41.3500  10.9500 C     1   CO2   0.6512
2051    O1  18.0700  40.8000  11.7900 O     1   CO2  -0.3256
2052    O2  19.2200  41.8400  10.0900 O     1   CO2  -0.3256
2053     C   3.5200  11.4500  44.1200 C     1   CO2   0.6512
2054    O1   3.7600  11.3800  43.0000 O     1   CO2  -0.3256
2055    O2   3.3300  11.4900  45.2500 O     1   CO2  -0.3256
2056     C  13.3400  33.2700  11.8400 C     1   CO2   0.6512
2057    O1  13.3100  32.2200  12.3200 O     1   CO2  -0.3256
2058    O2  13.3400  34.3200  11.3800 O     1   CO2  -0.3256
2059     C  27.3500  38.9700  59.8300 C     1   CO2   0.6512
2060    O1  26.3400  38.9500  60.3800 O     1   CO2  -0.3256
2061    O2  28.3800  38.9800  59.3200 O     1   CO2  -0.3256
2062     C  14.6100  26.6400  60.6000 C     1   CO2   0.6512
2063    O1  15.1600  25.9100  59.9000 O     1   CO2  -0.3256
2064    O2  14.0400  27.4000  61.2300 O     1   CO2  -0.3256
2065     C   8.5300  30.8300  64.3300 C     1   CO2   0.6512
2066    O1   9.6400  31.0600  64.5600 O     1   CO2  -0.3256
2067    O2   7.4300  30.5700  64.1400 O     1   CO2  -0.3256
2068     C  13.0200  14.3200  63.4200 C     1   CO2   0.6512
2069    O1  13.6100  15.3000  63.3300 O     1   CO2  -0.3256
2070    O2  12.4700  13.3200  63.5200 O     1   CO2  -0.3256
2071     C   2.4500  33.3900  32.5900 C     1   CO2   0.6512
2072    O1   3.4000  32.8900  33.0000 O     1   CO2  -0.3256
2073    O2   1.5100  33.9100  32.1900 O     1   CO2  -0.3256
2074     C  32.1400  20.6700  20.5700 C     1   CO2   0.6512
2075    O1  31.4400  19.7600  20.6400 O     1   CO2  -0.3256
2076    O2  32.8600  21.5600  20.4500 O     1   CO2  -0.3256
2077     C  16.5300  25.7000  38.6200 C     1   CO2   0.6512
2078    O1  17.2900  26.5600  38.6500 O     1   CO2  -0.3256
2079    O2  15.8000  24.8100  38.5800 O     1   CO2  -0.3256
2080     C   4.2500  42.6800  77.2800 C     1   CO2   0.6512
2081    O1   4.0100  41.5600  77.3600 O     1   CO2  -0.3256
2082    O2   4.5600  43.7900  77.2500 O     1   CO2  -0.3256
2083     C  18.0400  31.5200  28.8400 C     1   CO2   0.6512
2084    O1  17.2400  31.8500  28.0800 O     1   CO2  -0.3256
2085    O2  18.8400  31.1900  29.6000 O     1   CO2  -0.3256
2086     C  39.6700  40.9500  63.3300 C     1   CO2   0.6512
2087    O1  39.9400  41.5400  64.2800 O     1   CO2  -0.3256
2088    O2  39.4100  40.3800  62.3600 O     1   CO2  -0.3256
2089     C  31.3300  20.8100  65.1800 C     1   CO2   0.6512
2090    O1  32.2500  20.5800  65.8400 O     1   CO2  -0.3256
2091    O2  30.3900  20.9800  64.5400 O     1   CO2  -0.3256
2092     C  39.4800  22.6300  72.5800 C     1   CO2   0.6512
2093    O1  39.6800  23.7600  72.6700 O     1   CO2  -0.3256
2094    O2  39.2800  21.5000  72.5200 O     1   CO2  -0.3256
2095     C  26.5400  13.2100  69.6500 C     1   CO2   0.6512
2096    O1  25.5700  13.4900  70.1900 O     1   CO2  -0.3256
2097    O2  27.5300  12.9500  69.1200 O     1   CO2  -0.3256
2098     C  19.4000  34.0500  24.4800 C     1   CO2   0.6512
2099    O1  19.3200  35.0000  23.8300 O     1   CO2  -0.3256
2100    O2  19.5200  33.0700  25.0500 O     1   CO2  -0.3256
2101     C  29.5600  19.1100  37.3500 C     1   CO2   0.6512
2102    O1  29.2500  19.1800  38.4500 O     1   CO2  -0.3256
2103    O2  29.8600  18.9200  36.2500 O     1   CO2  -0.3256
2104     C  20.0500  39.1600  76.9400 C     1   CO2   0.6512
2105    O1  19.1400  39.8500  76.9000 O     1   CO2  -0.3256
2106    O2  20.9600  38.4500  76.9600 O     1   CO2  -0.3256
2107     C  24.9300  18.9900  18.6500 C     1   CO2   0.6512
2108    O1  24.5600  18.1300  19.3100 O     1   CO2  -0.3256
2109    O2  25.3100  19.8400  17.9800 O     1   CO2  -0.3256
2110     C  29.5300  21.5700  15.7300 C     1   CO2   0.6512
2111    O1  30.2500  20.8100  16.1900 O     1   CO2  -0.3256
2112    O2  28.8700  22.3600  15.2300 O     1   CO2  -0.3256
2113     C  38.7400  17.9000  58.7300 C     1   CO2   0.6512
2114    O1  38.5300  18.0900  57.6200 O     1   CO2  -0.3256
2115    O2  39.0000  17.7700  59.8400 O     1   CO2  -0.3256
2116     C  27.4400  22.0100   9.3200 C     1   CO2   0.6512
2117    O1  26.3100  21.8500   9.4800 O     1   CO2  -0.3256
2118    O2  28.5700  22.1400   9.2200 O     1   CO2  -0.3256
2119     C  12.7700   2.8700  57.6200 C     1   CO2   0.6512
2120    O1  12.6500   1.8300  57.1500 O     1   CO2  -0.3256
2121    O2  12.8400   3.9300  58.0700 O     1   CO2  -0.3256
2122     C  17.6500  16.4600  17.4100 C     1   CO2   0.6512
2123    O1  17.0500  15.8100  16.6800 O     1   CO2  -0.3256
2124    O2  18.2800  17.1200  18.1100 O     1   CO2  -0.3256
2125     C  34.2500  12.2800  43.9000 C     1   CO2   0.6512
2126    O1  34.1800  13.4100  43.7000 O     1   CO2  -0.3256
2127    O2  34.4000  11.1700  44.1200 O     1   CO2  -0.3256
2128     C  13.6900  30.4800   9.1300 C     1   CO2   0.6512
2129    O1  13.6300  29.3400   9.1800 O     1   CO2  -0.3256
2130    O2  13.6700  31.6300   9.1700 O     1   CO2  -0.3256
2131     C  29.8300  31.5600  77.0500 C     1   CO2   0.6512
2132    O1  28.8600  30.9300  77.0600 O     1   CO2  -0.3256
2133    O2  30.7900  32.1800  77.0700 O     1   CO2  -0.3256
2134     C  29.3700   1.0700  38.7100 C     1   CO2   0.6512
2135    O1  30.5200   1.0900  38.6500 O     1   CO2  -0.3256
2136    O2  28.2300   1.0700  38.6900 O     1   CO2  -0.3256
2137     C   1.6400  27.2800  33.6900 C     1   CO2   0.6512
2138    O1   2.4000  26.6000  33.1600 O     1   CO2  -0.3256
2139    O2   0.8700  27.9700  34.2000 O     1   CO2  -0.3256
2140     C  13.1200  19.7500  58.0800 C     1   CO2   0.6512
2141    O1  12.4800  18.9100  58.5200 O     1   CO2  -0.3256
2142    O2  13.6600  20.6500  57.6200 O     1   CO2  -0.3256
2143     C  35.5100  23.6000  29.9200 C     1   CO2   0.6512
2144    O1  34.6600  24.3700  30.0100 O     1   CO2  -0.3256
2145    O2  36.2900  22.7700  29.7700 O     1   CO2  -0.3256
2146     C  29.4800  23.8600  40.8200 C     1   CO2   0.6512
2147    O1  29.8200  22.7900  40.5600 O     1   CO2  -0.3256
2148    O2  29.1300  24.9300  41.0600 O     1   CO2  -0.3256
2149     C  35.3900   7.8500   6.5200 C     1   CO2   0.6512
2150    O1  35.8900   8.8700   6.3100 O     1   CO2  -0.3256
2151    O2  34.8700   6.8500   6.7400 O     1   CO2  -0.3256
2152     C  34.6300  24.2100  41.1400 C     1   CO2   0.6512
2153    O1  33.5700  24.5200  40.8300 O     1   CO2  -0.3256
2154    O2  35.6900  23.9000  41.4500 O     1   CO2  -0.3256
2155     C  42.1900   5.2600  54.3800 C     1   CO2   0.6512
2156    O1  41.9500   4.4700  53.5800 O     1   CO2  -0.3256
2157    O2  42.3500   6.0900  55.1600 O     1   CO2  -0.3256
2158     C  25.9700  35.3200  69.0900 C     1   CO2   0.6512
2159    O1  25.0100  35.6400  68.5500 O     1   CO2  -0.3256
2160    O2  26.9600  35.0400  69.6100 O     1   CO2  -0.3256
2161     C  37.1300  12.1300   6.6800 C     1   CO2   0.6512
2162    O1  36.1400  12.6500   6.4000 O     1   CO2  -0.3256
2163    O2  38.1300  11.6300   6.9300 O     1   CO2  -0.3256
2164     C   8.3200  34.0600  71.8500 C     1   CO2   0.6512
2165    O1   7.4700  34.4500  72.5300 O     1   CO2  -0.3256
2166    O2   9.1500  33.6800  71.1500 O     1   CO2  -0.3256
2167     C  42.5100   2.4900  37.9200 C     1   CO2   0.6512
2168    O1  43.1700   3.3700  37.5800 O     1   CO2  -0.3256
2169    O2  41.7500   1.7000  38.2700 O     1   CO2  -0.3256
2170     C  23.3700  39.5400  38.6500 C     1   CO2   0.6512
2171    O1  23.6300  40.3000  37.8300 O     1   CO2  -0.3256
2172    O2  23.1300  38.8000  39.4900 O     1   CO2  -0.3256
2173     C  21.7100  16.7300  21.7500 C     1   CO2   0.6512
2174    O1  21.4000  16.9500  20.6600 O     1   CO2  -0.3256
2175    O2  22.0300  16.4400  22.8100 O     1   CO2  -0.3256
2176     C  11.1700  41.5600  28.5300 C     1   CO2   0.6512
2177    O1  12.3200  41.6100  28.4300 O     1   CO2  -0.3256
2178    O2  10.0300  41.5900  28.6200 O     1   CO2  -0.3256
2179     C  21.4400   4.5600  28.6400 C     1   CO2   0.6512
2180    O1  21.9100   5.5100  28.1900 O     1   CO2  -0.3256
2181    O2  21.0400   3.5800  29.0800 O     1   CO2  -0.3256
2182     C  24.0300   2.1900  27.2200 C     1   CO2   0.6512
2183    O1  24.1100   3.2000  26.6800 O     1   CO2  -0.3256
2184    O2  23.9200   1.1800  27.7500 O     1   CO2  -0.3256
2185     C  15.7700  36.6200  10.1500 C     1   CO2   0.6512
2186    O1  16.6100  36.4800   9.3900 O     1   CO2  -0.3256
2187    O2  14.9100  36.8300  10.8800 O     1   CO2  -0.3256
2188     C   4.5100  20.0500  29.9000 C     1   CO2   0.6512
2189    O1   4.2700  20.2800  31.0000 O     1   CO2  -0.3256
2190    O2   4.8000  19.8900  28.8000 O     1   CO2  -0.3256
2191     C  19.9300  37.0300  27.1600 C     1   CO2   0.6512
2192    O1  20.6300  36.1200  27.0900 O     1   CO2  -0.3256
2193    O2  19.2600  37.9600  27.2300 O     1   CO2  -0.3256
2194     C  33.6100  28.4500  40.3400 C     1   CO2   0.6512
2195    O1  34.2600  27.5200  40.1400 O     1   CO2  -0.3256
2196    O2  32.9400  29.3600  40.5400 O     1   CO2  -0.3256
2197     C  25.3000   1.6900  56.3500 C     1   CO2   0.6512
2198    O1  26.0400   2.3400  56.9300 O     1   CO2  -0.3256
2199    O2  24.4800   1.0800  55.8100 O     1   CO2  -0.3256
2200     C  14.1200  25.4100  44.2600 C     1   CO2   0.6512
2201    O1  13.1600  24.8000  44.4100 O     1   CO2  -0.3256
2202    O2  15.0500  26.0800  44.1100 O     1   CO2  -0.3256
2203     C  26.9900  24.6100  45.5400 C     1   CO2   0.6512
2204    O1  27.7400  23.8100  45.2100 O     1   CO2  -0.3256
2205    O2  26.2400  25.4200  45.8700 O     1   CO2  -0.3256
2206     C  21.8100  19.7700  42.4300 C     1   CO2   0.6512
2207    O1  21.2600  19.7000  43.4300 O     1   CO2  -0.3256
2208    O2  22.3800  19.8200  41.4300 O     1   CO2  -0.3256
2209     C  21.8500   2.0000  61.7900 C     1   CO2   0.6512
2210    O1  22.0700   2.5200  62.7900 O     1   CO2  -0.3256
2211    O2  21.5700   1.4500  60.8200 O     1   CO2  -0.3256
2212     C  21.9700   5.5800  24.5800 C     1   CO2   0.6512
2213    O1  22.2100   6.7000  24.5000 O     1   CO2  -0.3256
2214    O2  21.7400   4.4600  24.7000 O     1   CO2  -0.3256
2215     C  13.4000  34.1400  65.2600 C     1   CO2   0.6512
2216    O1  13.7100  34.8900  64.4400 O     1   CO2  -0.3256
2217    O2  13.0600  33.3800  66.0500 O     1   CO2  -0.3256
2218     C  17.0000  13.6100  76.5900 C     1   CO2   0.6512
2219    O1  16.2500  14.4300  76.9000 O     1   CO2  -0.3256
2220    O2  17.7200  12.7600  76.3000 O     1   CO2  -0.3256
2221     C   7.0900   9.4400  53.9700 C     1   CO2   0.6512
2222    O1   6.0800   9.5800  54.5000 O     1   CO2  -0.3256
2223    O2   8.0800   9.3400  53.3900 O     1   CO2  -0.3256
2224     C  42.4100  26.5000  74.1400 C     1   CO2   0.6512
2225    O1  42.6900  27.6100  74.0600 O     1   CO2  -0.3256
2226    O2  42.1000  25.4000  74.2500 O     1   CO2  -0.3256
2227     C  24.7100  13.9600  21.9500 C     1   CO2   0.6512
2228    O1  23.8300  13.8700  21.2200 O     1   CO2  -0.3256
2229    O2  25.5700  14.0600  22.7000 O     1   CO2  -0.3256
2230     C  10.6700  36.5100  43.7700 C     1   CO2   0.6512
2231    O1  10.5400  37.6500  43.7900 O     1   CO2  -0.3256
2232    O2  10.8000  35.3700  43.8100 O     1   CO2  -0.3256
2233     C   8.5000   4.8700  15.1700 C     1   CO2   0.6512
2234    O1   8.2000   4.4700  14.1300 O     1   CO2  -0.3256
2235    O2   8.8100   5.2000  16.2200 O     1   CO2  -0.3256
2236     C  41.5500  14.5500  51.9900 C     1   CO2   0.6512
2237    O1  42.2300  14.1900  51.1500 O     1   CO2  -0.3256
2238    O2  40.8600  14.9500  52.8200 O     1   CO2  -0.3256
2239     C   2.5900   2.5300  67.6200 C     1   CO2   0.6512
2240    O1   2.4900   3.5200  68.2000 O     1   CO2  -0.3256
2241    O2   2.7900   1.6000  66.9800 O     1   CO2  -0.3256
2242     C  19.1800  16.9900   6.5100 C     1   CO2   0.6512
2243    O1  18.6300  15.9900   6.6100 O     1   CO2  -0.3256
2244    O2  19.7500  17.9900   6.4400 O     1   CO2  -0.3256
2245     C  27.8000  16.8300   9.9900 C     1   CO2   0.6512
2246    O1  27.2600  15.9000   9.5900 O     1   CO2  -0.3256
2247    O2  28.3200  17.7700  10.4100 O     1   CO2  -0.3256
2248     C   4.0700  28.8100  50.5600 C     1   CO2   0.6512
2249    O1   4.0400  29.1400  49.4600 O     1   CO2  -0.3256
2250    O2   4.1300  28.5800  51.6800 O     1   CO2  -0.3256
2251     C  35.6600  14.8200  59.9700 C     1   CO2   0.6512
2252    O1  35.5000  13.8000  60.4600 O     1   CO2  -0.3256
2253    O2  35.8200  15.8500  59.4900 O     1   CO2  -0.3256
2254     C   4.4200  18.7300   6.6700 C     1   CO2   0.6512
2255    O1   3.5000  19.4200   6.7400 O     1   CO2  -0.3256
2256    O2   5.3700  18.0900   6.5800 O     1   CO2  -0.3256
2257     C  36.3100   3.3700  42.3800 C     1   CO2   0.6512
2258    O1  36.9100   3.6300  41.4400 O     1   CO2  -0.3256
2259    O2  35.6400   3.0800  43.2700 O     1   CO2  -0.3256
2260     C  29.4300   3.8700  54.8300 C     1   CO2   0.6512
2261    O1  29.8000   4.8400  55.3100 O     1   CO2  -0.3256
2262    O2  29.0600   2.8800  54.3700 O     1   CO2  -0.3256
2263     C  33.6100  42.0200  65.5500 C     1   CO2   0.6512
2264    O1  32.9200  42.9300  65.4800 O     1   CO2  -0.3256
2265    O2  34.2700  41.0800  65.5400 O     1   CO2  -0.3256
2266     C  32.2900   2.3500  67.2300 C     1   CO2   0.6512
2267    O1  32.3900   1.5000  68.0000 O     1   CO2  -0.3256
2268    O2  32.1600   3.2000  66.4700 O     1   CO2  -0.3256
2269     C  40.3200   2.3200  27.4200 C     1   CO2   0.6512
2270    O1  39.3700   2.1800  28.0500 O     1   CO2  -0.3256
2271    O2  41.2600   2.3300  26.7600 O     1   CO2  -0.3256
2272     C  37.7100  26.7500  32.5700 C     1   CO2   0.6512
2273    O1  36.7400  26.2700  32.9400 O     1   CO2  -0.3256
2274    O2  38.6500  27.3100  32.2000 O     1   CO2  -0.3256
2275     C  34.6200  21.5300  33.6400 C     1   CO2   0.6512
2276    O1  35.4500  22.0900  33.0700 O     1   CO2  -0.3256
2277    O2  33.8700  20.9500  34.2800 O     1   CO2  -0.3256
2278     C  11.0200  41.0500  10.1500 C     1   CO2   0.6512
2279    O1  11.0400  41.9200  10.9000 O     1   CO2  -0.3256
2280    O2  10.9100  40.2200   9.3600 O     1   CO2  -0.3256
2281     C  11.2400   8.6900   7.5900 C     1   CO2   0.6512
2282    O1  11.0000   8.6700   6.4700 O     1   CO2  -0.3256
2283    O2  11.4300   8.7400   8.7200 O     1   CO2  -0.3256
2284     C  32.2700  24.4100  71.7300 C     1   CO2   0.6512
2285    O1  32.0200  25.5200  71.6000 O     1   CO2  -0.3256
2286    O2  32.5700  23.3100  71.8600 O     1   CO2  -0.3256
2287     C   8.7400  26.8400  48.0600 C     1   CO2   0.6512
2288    O1   8.8000  26.3000  47.0500 O     1   CO2  -0.3256
2289    O2   8.6300  27.4100  49.0500 O     1   CO2  -0.3256
2290     C   4.2100  16.4300  46.1200 C     1   CO2   0.6512
2291    O1   5.3500  16.4500  46.0700 O     1   CO2  -0.3256
2292    O2   3.0600  16.3300  46.1400 O     1   CO2  -0.3256
2293     C  20.9400  24.6500  61.1100 C     1   CO2   0.6512
2294    O1  22.0600  24.8300  60.9400 O     1   CO2  -0.3256
2295    O2  19.8300  24.3900  61.2600 O     1   CO2  -0.3256
2296     C  38.6700  15.1200  62.7000 C     1   CO2   0.6512
2297    O1  39.6300  14.7300  63.2000 O     1   CO2  -0.3256
2298    O2  37.7100  15.5000  62.2100 O     1   CO2  -0.3256
2299     C  36.5000   5.3600  45.6800 C     1   CO2   0.6512
2300    O1  37.1300   6.2200  45.2500 O     1   CO2  -0.3256
2301    O2  35.8300   4.5500  46.1500 O     1   CO2  -0.3256
2302     C  23.6800  32.0200  46.6800 C     1   CO2   0.6512
2303    O1  24.0200  33.0200  46.2400 O     1   CO2  -0.3256
2304    O2  23.3600  31.0000  47.1100 O     1   CO2  -0.3256
2305     C  36.0700  33.4000  14.6800 C     1   CO2   0.6512
2306    O1  35.1500  32.8900  15.1600 O     1   CO2  -0.3256
2307    O2  36.9800  33.8900  14.1900 O     1   CO2  -0.3256
2308     C   8.4000   4.7600  40.3600 C     1   CO2   0.6512
2309    O1   7.9200   5.8000  40.2500 O     1   CO2  -0.3256
2310    O2   8.9700   3.7700  40.4500 O     1   CO2  -0.3256
2311     C   2.8900   6.4100  52.7200 C     1   CO2   0.6512
2312    O1   2.5800   7.0200  53.6400 O     1   CO2  -0.3256
2313    O2   3.1800   5.7400  51.8300 O     1   CO2  -0.3256
2314     C   8.9500  25.3800  32.8000 C     1   CO2   0.6512
2315    O1   8.2400  25.2800  33.7000 O     1   CO2  -0.3256
2316    O2   9.6700  25.4800  31.9100 O     1   CO2  -0.3256
2317     C  28.8800  37.9300  73.9700 C     1   CO2   0.6512
2318    O1  27.8900  37.5600  74.4400 O     1   CO2  -0.3256
2319    O2  29.9000  38.2400  73.5700 O     1   CO2  -0.3256
2320     C  35.7900   8.4500  41.6100 C     1   CO2   0.6512
2321    O1  36.0300   7.5100  42.2200 O     1   CO2  -0.3256
2322    O2  35.5100   9.4000  41.0300 O     1   CO2  -0.3256
2323     C  30.8300  17.6900  62.0700 C     1   CO2   0.6512
2324    O1  30.6400  16.6700  61.5800 O     1   CO2  -0.3256
2325    O2  31.1000  18.6900  62.5700 O     1   CO2  -0.3256
2326     C  14.8500  23.1200  35.9800 C     1   CO2   0.6512
2327    O1  15.7200  23.6800  35.4700 O     1   CO2  -0.3256
2328    O2  13.9900  22.5800  36.5100 O     1   CO2  -0.3256
2329     C   1.6600   3.1200  56.2600 C     1   CO2   0.6512
2330    O1   2.4500   2.6700  56.9600 O     1   CO2  -0.3256
2331    O2   0.8700   3.5700  55.5600 O     1   CO2  -0.3256
2332     C  39.6000  32.2100  48.6100 C     1   CO2   0.6512
2333    O1  40.4700  32.6800  48.0300 O     1   CO2  -0.3256
2334    O2  38.7200  31.7400  49.1800 O     1   CO2  -0.3256
2335     C   4.9400   4.2000  15.6100 C     1   CO2   0.6512
2336    O1   5.5500   3.3200  16.0100 O     1   CO2  -0.3256
2337    O2   4.2900   5.0100  15.1100 O     1   CO2  -0.3256
2338     C   1.7300   3.2800  61.0300 C     1   CO2   0.6512
2339    O1   1.1900   2.6400  60.2400 O     1   CO2  -0.3256
2340    O2   2.2200   3.9100  61.8600 O     1   CO2  -0.3256
2341     C  13.5000  29.8800  76.5500 C     1   CO2   0.6512
2342    O1  14.0200  30.8400  76.1800 O     1   CO2  -0.3256
2343    O2  12.9200  29.0000  77.0000 O     1   CO2  -0.3256
2344     C  20.6900  20.1000  19.1200 C     1   CO2   0.6512
2345    O1  19.8100  19.7600  19.7700 O     1   CO2  -0.3256
2346    O2  21.5500  20.5000  18.4600 O     1   CO2  -0.3256
2347     C  18.4500  13.1500  63.2800 C     1   CO2   0.6512
2348    O1  17.7900  14.0700  63.4900 O     1   CO2  -0.3256
2349    O2  19.1600  12.2800  63.0400 O     1   CO2  -0.3256
2350     C   4.0500  22.9000  21.6000 C     1   CO2   0.6512
2351    O1   5.2000  22.8300  21.6200 O     1   CO2  -0.3256
2352    O2   2.9100  23.0000  21.6700 O     1   CO2  -0.3256
2353     C   1.0000  25.7600  16.3200 C     1   CO2   0.6512
2354    O1   1.9800  25.3600  15.8800 O     1   CO2  -0.3256
2355    O2   0.0500  26.1500  16.8500 O     1   CO2  -0.3256
2356     C   3.8900  11.9500  19.6900 C     1   CO2   0.6512
2357    O1   4.7400  11.1900  19.6200 O     1   CO2  -0.3256
2358    O2   3.0300  12.7100  19.7500 O     1   CO2  -0.3256
2359     C   9.1100  12.1400  61.2000 C     1   CO2   0.6512
2360    O1  10.2400  12.3000  61.1700 O     1   CO2  -0.3256
2361    O2   7.9800  11.8900  61.2300 O     1   CO2  -0.3256
2362     C  28.2800  15.2200   6.7200 C     1   CO2   0.6512
2363    O1  27.7700  14.1900   6.7800 O     1   CO2  -0.3256
2364    O2  28.8200  16.2300   6.6800 O     1   CO2  -0.3256
2365     C  15.8700  24.0300   6.8300 C     1   CO2   0.6512
2366    O1  14.8300  23.5500   6.7300 O     1   CO2  -0.3256
2367    O2  16.9300  24.4700   6.8800 O     1   CO2  -0.3256
2368     C   9.6100  14.5600  64.0900 C     1   CO2   0.6512
2369    O1  10.2700  14.6200  65.0300 O     1   CO2  -0.3256
2370    O2   8.9800  14.5000  63.1300 O     1   CO2  -0.3256
2371     C  14.4800  38.9700  70.5100 C     1   CO2   0.6512
2372    O1  15.3000  38.5700  69.8200 O     1   CO2  -0.3256
2373    O2  13.6700  39.4100  71.2000 O     1   CO2  -0.3256
2374     C  27.8000  40.9000  44.5100 C     1   CO2   0.6512
2375    O1  28.9300  40.7500  44.6900 O     1   CO2  -0.3256
2376    O2  26.6700  41.0200  44.4000 O     1   CO2  -0.3256
2377     C  13.7600  31.5800  42.9200 C     1   CO2   0.6512
2378    O1  14.0800  31.9100  41.8700 O     1   CO2  -0.3256
2379    O2  13.4800  31.2600  43.9900 O     1   CO2  -0.3256
2380     C  28.5800  37.1400  38.0400 C     1   CO2   0.6512
2381    O1  28.9400  37.7200  38.9700 O     1   CO2  -0.3256
2382    O2  28.1000  36.6000  37.1400 O     1   CO2  -0.3256
2383     C  29.3100  26.6500  50.6000 C     1   CO2   0.6512
2384    O1  29.1900  26.5900  51.7400 O     1   CO2  -0.3256
2385    O2  29.3900  26.6600  49.4500 O     1   CO2  -0.3256
2386     C  31.1500  40.2600  36.1300 C     1   CO2   0.6512
2387    O1  31.1500  41.3800  36.3900 O     1   CO2  -0.3256
2388    O2  31.1600  39.1400  35.9000 O     1   CO2  -0.3256
2389     C  43.1000   5.1500  12.4100 C     1   CO2   0.6512
2390    O1  43.9500   5.5100  11.7400 O     1   CO2  -0.3256
2391    O2  42.2300   4.7800  13.0600 O     1   CO2  -0.3256
2392     C  11.2400  22.4700  76.7700 C     1   CO2   0.6512
2393    O1  10.5600  23.3300  77.1100 O     1   CO2  -0.3256
2394    O2  11.9300  21.6000  76.4800 O     1   CO2  -0.3256
2395     C   8.7700  17.1700  45.6100 C     1   CO2   0.6512
2396    O1   8.1800  17.5000  46.5400 O     1   CO2  -0.3256
2397    O2   9.3600  16.9100  44.6600 O     1   CO2  -0.3256
2398     C  24.8400  17.6600  23.5600 C     1   CO2   0.6512
2399    O1  24.7800  17.0100  24.5100 O     1   CO2  -0.3256
2400    O2  24.8400  18.2800  22.6000 O     1   CO2  -0.3256
2401     C   6.9600  10.0900  45.2200 C     1   CO2   0.6512
2402    O1   7.1200  11.1900  45.5200 O     1   CO2  -0.3256
2403    O2   6.8100   9.0100  44.8800 O     1   CO2  -0.3256
2404     C  25.1300  40.9100  54.2200 C     1   CO2   0.6512
2405    O1  24.7000  39.8500  54.1000 O     1   CO2  -0.3256
2406    O2  25.4900  41.9800  54.4000 O     1   CO2  -0.3256
2407     C  26.9400  19.3800  73.4200 C     1   CO2   0.6512
2408    O1  26.4900  18.7400  74.2700 O     1   CO2  -0.3256
2409    O2  27.3400  20.0400  72.5700 O     1   CO2  -0.3256
2410     C  31.6500  39.4400  76.8700 C     1   CO2   0.6512
2411    O1  30.9700  40.3400  76.6700 O     1   CO2  -0.3256
2412    O2  32.3600  38.5600  77.0600 O     1   CO2  -0.3256
2413     C  30.7400   9.1700  16.3200 C     1   CO2   0.6512
2414    O1  30.1400   9.8600  17.0100 O     1   CO2  -0.3256
2415    O2  31.3700   8.4500  15.6800 O     1   CO2  -0.3256
2416     C  19.4000  21.1000  40.3500 C     1   CO2   0.6512
2417    O1  19.1600  21.3800  41.4400 O     1   CO2  -0.3256
2418    O2  19.6100  20.7900  39.2700 O     1   CO2  -0.3256
2419     C  28.8500  20.8700  19.2900 C     1   CO2   0.6512
2420    O1  28.6300  20.0400  18.5400 O     1   CO2  -0.3256
2421    O2  28.9400  21.7400  20.0400 O     1   CO2  -0.3256
2422     C   4.5000  40.5200  69.7500 C     1   CO2   0.6512
2423    O1   4.4400  40.2700  68.6300 O     1   CO2  -0.3256
2424    O2   4.4900  40.8500  70.8500 O     1   CO2  -0.3256
2425     C   1.9900   8.6300  13.1100 C     1   CO2   0.6512
2426    O1   1.2300   7.8100  13.3800 O     1   CO2  -0.3256
2427    O2   2.7500   9.4600  12.9000 O     1   CO2  -0.3256
2428     C  40.1200  21.1600  31.0600 C     1   CO2   0.6512
2429    O1  39.3800  20.2800  31.1800 O     1   CO2  -0.3256
2430    O2  40.8800  22.0200  31.0000 O     1   CO2  -0.3256
2431     C  30.8500  19.7800  44.8300 C     1   CO2   0.6512
2432    O1  31.3100  20.7300  44.3700 O     1   CO2  -0.3256
2433    O2  30.4800  18.8000  45.3000 O     1   CO2  -0.3256
2434     C  16.4500  42.5300  16.3300 C     1   CO2   0.6512
2435    O1  17.4500  42.6400  16.8800 O     1   CO2  -0.3256
2436    O2  15.4700  42.3800  15.7400 O     1   CO2  -0.3256
2437     C   0.1500   8.1600  52.0100 C     1   CO2   0.6512
2438    O1  -0.6700   7.5000  52.4700 O     1   CO2  -0.3256
2439    O2   1.0200   8.7400  51.5300 O     1   CO2  -0.3256
2440     C   4.7200   9.7600   6.7700 C     1   CO2   0.6512
2441    O1   3.7500   9.2400   6.4500 O     1   CO2  -0.3256
2442    O2   5.6700  10.2900   7.1300 O     1   CO2  -0.3256
2443     C  23.8200  22.8600  15.6400 C     1   CO2   0.6512
2444    O1  23.6200  22.5100  14.5700 O     1   CO2  -0.3256
2445    O2  24.1400  23.2000  16.6900 O     1   CO2  -0.3256
2446     C  42.8400  34.3600  25.7400 C     1   CO2   0.6512
2447    O1  43.3300  33.3900  25.3800 O     1   CO2  -0.3256
2448    O2  42.3600  35.3400  26.1200 O     1   CO2  -0.3256
2449     C  14.6500  40.5600  10.4100 C     1   CO2   0.6512
2450    O1  13.8500  41.2500   9.9600 O     1   CO2  -0.3256
2451    O2  15.4300  39.8600  10.8800 O     1   CO2  -0.3256
2452     C  42.4600   4.3700  25.0100 C     1   CO2   0.6512
2453    O1  41.5700   4.9500  25.4500 O     1   CO2  -0.3256
2454    O2  43.3400   3.8100  24.5400 O     1   CO2  -0.3256
2455     C  40.0900   8.8500  18.2300 C     1   CO2   0.6512
2456    O1  39.9400   7.7400  18.4600 O     1   CO2  -0.3256
2457    O2  40.1700   9.9700  17.9800 O     1   CO2  -0.3256
2458     C   0.7400  38.2600  43.4200 C     1   CO2   0.6512
2459    O1   1.5300  37.5700  42.9700 O     1   CO2  -0.3256
2460    O2  -0.0900  38.9200  43.8800 O     1   CO2  -0.3256
2461     C  42.0000  32.0900  19.0100 C     1   CO2   0.6512
2462    O1  42.0300  32.0500  17.8600 O     1   CO2  -0.3256
2463    O2  41.8900  32.1500  20.1500 O     1   CO2  -0.3256
2464     C   2.7700   1.5900  26.2800 C     1   CO2   0.6512
2465    O1   3.0800   0.8400  25.4600 O     1   CO2  -0.3256
2466    O2   2.4600   2.3200  27.1000 O     1   CO2  -0.3256
2467     C  43.0300   5.0800  69.8800 C     1   CO2   0.6512
2468    O1  42.0400   4.9300  69.3200 O     1   CO2  -0.3256
2469    O2  44.0700   5.1600  70.3800 O     1   CO2  -0.3256
2470     C  11.6600  19.5100  12.5200 C     1   CO2   0.6512
2471    O1  10.5700  19.5300  12.8800 O     1   CO2  -0.3256
2472    O2  12.7500  19.5400  12.1600 O     1   CO2  -0.3256
2473     C  33.8500  27.6600   9.9200 C     1   CO2   0.6512
2474    O1  33.7900  26.5400   9.6700 O     1   CO2  -0.3256
2475    O2  34.0000  28.7700  10.2000 O     1   CO2  -0.3256
2476     C  22.4800  26.2600  53.9800 C     1   CO2   0.6512
2477    O1  22.9000  26.8200  54.8900 O     1   CO2  -0.3256
2478    O2  22.0400  25.7200  53.0600 O     1   CO2  -0.3256
2479     C  12.9100  31.4300  62.5600 C     1   CO2   0.6512
2480    O1  12.2600  31.8700  61.7300 O     1   CO2  -0.3256
2481    O2  13.4900  31.0100  63.4600 O     1   CO2  -0.3256
2482     C  36.9500  20.0900  39.9400 C     1   CO2   0.6512
2483    O1  36.6000  19.3800  39.1000 O     1   CO2  -0.3256
2484    O2  37.3200  20.7700  40.7900 O     1   CO2  -0.3256
2485     C   3.3300  28.9100  70.8900 C     1   CO2   0.6512
2486    O1   3.9200  29.7200  70.3300 O     1   CO2  -0.3256
2487    O2   2.7600  28.1400  71.5200 O     1   CO2  -0.3256
2488     C  32.1500  19.6500  40.8500 C     1   CO2   0.6512
2489    O1  33.1900  19.8900  40.4400 O     1   CO2  -0.3256
2490    O2  31.0900  19.4400  41.2600 O     1   CO2  -0.3256
2491     C  19.2100   6.6100  51.8600 C     1   CO2   0.6512
2492    O1  19.9100   7.4300  51.4600 O     1   CO2  -0.3256
2493    O2  18.5000   5.7700  52.1900 O     1   CO2  -0.3256
2494     C  14.7000  26.3200  74.6600 C     1   CO2   0.6512
2495    O1  15.6200  26.8800  74.3000 O     1   CO2  -0.3256
2496    O2  13.7100  25.7800  74.9100 O     1   CO2  -0.3256
2497     C  38.6400  11.7300  36.9200 C     1   CO2   0.6512
2498    O1  38.5300  12.6800  37.5500 O     1   CO2  -0.3256
2499    O2  38.7400  10.8000  36.2500 O     1   CO2  -0.3256
2500     C  27.1600  20.0300  67.2800 C     1   CO2   0.6512
2501    O1  26.4700  20.1100  68.2000 O     1   CO2  -0.3256
2502    O2  27.8500  19.9700  66.3700 O     1   CO2  -0.3256
2503     C  31.8900   8.3000  44.7400 C     1   CO2   0.6512
2504    O1  31.6400   9.2200  45.3800 O     1   CO2  -0.3256
2505    O2  32.1500   7.4100  44.0600 O     1   CO2  -0.3256
2506     C  10.0400  14.2800  33.9100 C     1   CO2   0.6512
2507    O1  10.8300  13.4900  34.1900 O     1   CO2  -0.3256
2508    O2   9.2500  15.0600  33.6400 O     1   CO2  -0.3256
2509     C  32.0000  15.4900  43.1900 C     1   CO2   0.6512
2510    O1  31.4600  14.4800  43.1500 O     1   CO2  -0.3256
2511    O2  32.5000  16.5200  43.2600 O     1   CO2  -0.3256
2512     C  12.7400  26.7100  71.4300 C     1   CO2   0.6512
2513    O1  13.4900  27.4900  71.8300 O     1   CO2  -0.3256
2514    O2  12.0000  25.9400  71.0100 O     1   CO2  -0.3256
2515     C  16.9500  12.5000  51.3600 C     1   CO2   0.6512
2516    O1  15.9200  12.9200  51.6500 O     1   CO2  -0.3256
2517    O2  17.9700  12.0900  51.0400 O     1   CO2  -0.3256
2518     C  19.2200   9.8800  76.7500 C     1   CO2   0.6512
2519    O1  18.4100   9.0700  76.6500 O     1   CO2  -0.3256
2520    O2  20.0700  10.6600  76.7600 O     1   CO2  -0.3256
2521     C  28.4700  16.7600  12.9900 C     1   CO2   0.6512
2522    O1  28.0200  15.7600  12.6400 O     1   CO2  -0.3256
2523    O2  28.8700  17.8000  13.2900 O     1   CO2  -0.3256
2524     C  27.7600   3.6100  48.6900 C     1   CO2   0.6512
2525    O1  27.4300   2.7700  47.9700 O     1   CO2  -0.3256
2526    O2  28.0600   4.4400  49.4200 O     1   CO2  -0.3256
2527     C  38.5700   1.9500  65.6600 C     1   CO2   0.6512
2528    O1  37.4900   2.2200  65.3800 O     1   CO2  -0.3256
2529    O2  39.6600   1.7200  65.9500 O     1   CO2  -0.3256
2530     C  19.6600  27.4100   6.7500 C     1   CO2   0.6512
2531    O1  20.7900  27.2100   6.7400 O     1   CO2  -0.3256
2532    O2  18.5200  27.5500   6.7200 O     1   CO2  -0.3256
2533     C  10.9000  34.7900  73.8100 C     1   CO2   0.6512
2534    O1  10.3400  35.7500  74.1000 O     1   CO2  -0.3256
2535    O2  11.4800  33.8300  73.5400 O     1   CO2  -0.3256
2536     C  39.2700  15.2500  38.7800 C     1   CO2   0.6512
2537    O1  38.4700  15.7200  39.4500 O     1   CO2  -0.3256
2538    O2  40.0500  14.7700  38.0800 O     1   CO2  -0.3256
2539     C  37.0300  35.1100  77.1200 C     1   CO2   0.6512
2540    O1  37.8300  35.9300  77.0700 O     1   CO2  -0.3256
2541    O2  36.2100  34.3000  77.1600 O     1   CO2  -0.3256
2542     C  21.2700  10.9100  23.4600 C     1   CO2   0.6512
2543    O1  21.7300  11.1900  22.4500 O     1   CO2  -0.3256
2544    O2  20.8000  10.5200  24.4300 O     1   CO2  -0.3256
2545     C   6.7900  17.9800  73.9100 C     1   CO2   0.6512
2546    O1   6.6700  19.1300  73.8800 O     1   CO2  -0.3256
2547    O2   6.8700  16.8400  73.9600 O     1   CO2  -0.3256
2548     C  12.9500  36.2500  71.4300 C     1   CO2   0.6512
2549    O1  14.0700  36.2100  71.6800 O     1   CO2  -0.3256
2550    O2  11.8500  36.2900  71.1000 O     1   CO2  -0.3256
2551     C   0.7200  14.6400  76.8300 C     1   CO2   0.6512
2552    O1   1.4700  13.7800  76.9300 O     1   CO2  -0.3256
2553    O2  -0.0700  15.4700  76.7400 O     1   CO2  -0.3256
2554     C   7.6700  27.8800  27.9300 C     1   CO2   0.6512
2555    O1   7.1200  27.9900  28.9300 O     1   CO2  -0.3256
2556    O2   8.2600  27.6900  26.9600 O     1   CO2  -0.3256
2557     C   7.2000  36.0800  54.4000 C     1   CO2   0.6512
2558    O1   7.1100  35.8800  55.5300 O     1   CO2  -0.3256
2559    O2   7.2900  36.2600  53.2700 O     1   CO2  -0.3256
2560     C  22.3400  16.7500   6.8000 C     1   CO2   0.6512
2561    O1  21.9700  15.6800   6.5800 O     1   CO2  -0.3256
2562    O2  22.6600  17.8200   7.0800 O     1   CO2  -0.3256
2563     C  36.5500  13.7700  33.8500 C     1   CO2   0.6512
2564    O1  35.7200  13.6900  33.0600 O     1   CO2  -0.3256
2565    O2  37.3300  13.8300  34.7000 O     1   CO2  -0.3256
2566     C  26.5000  23.4100  18.8700 C     1   CO2   0.6512
2567    O1  25.9100  23.5800  19.8400 O     1   CO2  -0.3256
2568    O2  27.1200  23.2600  17.9200 O     1   CO2  -0.3256
2569     C   6.0800   8.2100  14.9100 C     1   CO2   0.6512
2570    O1   5.5800   9.1800  14.5500 O     1   CO2  -0.3256
2571    O2   6.5800   7.2300  15.2500 O     1   CO2  -0.3256
2572     C   2.5000   2.2200  20.1900 C     1   CO2   0.6512
2573    O1   2.0000   1.3300  19.6600 O     1   CO2  -0.3256
2574    O2   2.9500   3.1600  20.6700 O     1   CO2  -0.3256
2575     C  36.3100  22.6000  37.7600 C     1   CO2   0.6512
2576    O1  37.3800  22.6600  37.3300 O     1   CO2  -0.3256
2577    O2  35.2500  22.5500  38.2000 O     1   CO2  -0.3256
2578     C  29.4200  31.3500  23.6400 C     1   CO2   0.6512
2579    O1  28.8600  31.9900  24.4100 O     1   CO2  -0.3256
2580    O2  30.0100  30.7500  22.8500 O     1   CO2  -0.3256
2581     C   6.2100   6.5200  55.8800 C     1   CO2   0.6512
2582    O1   6.6000   6.4200  56.9600 O     1   CO2  -0.3256
2583    O2   5.7900   6.6100  54.8200 O     1   CO2  -0.3256
2584     C   0.6600  24.7000  35.3800 C     1   CO2   0.6512
2585    O1   1.0100  23.6800  34.9800 O     1   CO2  -0.3256
2586    O2   0.3200  25.7400  35.7200 O     1   CO2  -0.3256
2587     C  21.9100   8.8500  60.0000 C     1   CO2   0.6512
2588    O1  20.7900   9.1000  60.1500 O     1   CO2  -0.3256
2589    O2  23.0100   8.5300  59.9400 O     1   CO2  -0.3256
2590     C  41.8300  28.6600  19.8700 C     1   CO2   0.6512
2591    O1  42.6600  28.0900  20.4200 O     1   CO2  -0.3256
2592    O2  41.0800  29.2600  19.2300 O     1   CO2  -0.3256
2593     C  37.6000  25.5900  11.4200 C     1   CO2   0.6512
2594    O1  36.6200  24.9900  11.5200 O     1   CO2  -0.3256
2595    O2  38.5800  26.1700  11.3400 O     1   CO2  -0.3256
2596     C  36.7100  38.0700  57.9900 C     1   CO2   0.6512
2597    O1  37.3200  37.1100  57.8100 O     1   CO2  -0.3256
2598    O2  36.1400  39.0600  58.1100 O     1   CO2  -0.3256
2599     C  24.6500  36.9300  48.9900 C     1   CO2   0.6512
2600    O1  25.7100  37.3500  49.0400 O     1   CO2  -0.3256
2601    O2  23.5700  36.5300  48.9200 O     1   CO2  -0.3256
2602     C  37.6400   4.7000  18.1300 C     1   CO2   0.6512
2603    O1  38.5500   4.2300  18.6400 O     1   CO2  -0.3256
2604    O2  36.7300   5.1900  17.6300 O     1   CO2  -0.3256
2605     C  34.7600  27.2400  42.9400 C     1   CO2   0.6512
2606    O1  34.9400  28.3700  42.9500 O     1   CO2  -0.3256
2607    O2  34.6500  26.1000  43.0500 O     1   CO2  -0.3256
2608     C   6.1900  34.1900  58.5600 C     1   CO2   0.6512
2609    O1   5.2200  34.6800  58.1800 O     1   CO2  -0.3256
2610    O2   7.1400  33.7300  59.0000 O     1   CO2  -0.3256
2611     C   0.4900   1.5900  16.3700 C     1   CO2   0.6512
2612    O1  -0.3200   0.9500  16.8600 O     1   CO2  -0.3256
2613    O2   1.2600   2.2600  15.8300 O     1   CO2  -0.3256
2614     C  19.8000  40.4200  55.9600 C     1   CO2   0.6512
2615    O1  20.1400  39.6000  56.6900 O     1   CO2  -0.3256
2616    O2  19.4500  41.2300  55.2300 O     1   CO2  -0.3256
2617     C  31.9100  15.6000  59.0100 C     1   CO2   0.6512
2618    O1  32.9800  16.0000  59.0500 O     1   CO2  -0.3256
2619    O2  30.8300  15.1900  58.9600 O     1   CO2  -0.3256
2620     C  16.1600  36.6100  29.2600 C     1   CO2   0.6512
2621    O1  17.0500  37.0600  29.8300 O     1   CO2  -0.3256
2622    O2  15.3000  36.1100  28.6900 O     1   CO2  -0.3256
2623     C  41.0600   2.5100  62.9600 C     1   CO2   0.6512
2624    O1  40.1800   1.8000  63.1800 O     1   CO2  -0.3256
2625    O2  41.8500   3.3200  62.7400 O     1   CO2  -0.3256
2626     C  31.9700   9.3000  11.9200 C     1   CO2   0.6512
2627    O1  31.3700   8.4100  12.3200 O     1   CO2  -0.3256
2628    O2  32.6100  10.2000  11.5700 O     1   CO2  -0.3256
2629     C  23.8000  33.7500  24.2900 C     1   CO2   0.6512
2630    O1  24.5500  33.4000  23.5000 O     1   CO2  -0.3256
2631    O2  23.1000  34.1300  25.1200 O     1   CO2  -0.3256
2632     C   8.0500  25.0400  25.2100 C     1   CO2   0.6512
2633    O1   8.8700  24.8800  24.4200 O     1   CO2  -0.3256
2634    O2   7.1600  25.2100  25.9200 O     1   CO2  -0.3256
2635     C  14.3800  10.9800  62.4200 C     1   CO2   0.6512
2636    O1  15.3600  11.5200  62.6800 O     1   CO2  -0.3256
2637    O2  13.3700  10.4700  62.2000 O     1   CO2  -0.3256
2638     C  40.9200  13.6300  10.0600 C     1   CO2   0.6512
2639    O1  40.0200  13.4600   9.3600 O     1   CO2  -0.3256
2640    O2  41.8500  13.7500  10.7100 O     1   CO2  -0.3256
2641     C  24.8600  28.5500  19.9600 C     1   CO2   0.6512
2642    O1  25.5000  27.6200  20.1900 O     1   CO2  -0.3256
2643    O2  24.1700  29.4500  19.7600 O     1   CO2  -0.3256
2644     C  26.2700  35.5400  45.7000 C     1   CO2   0.6512
2645    O1  26.4900  35.4400  44.5800 O     1   CO2  -0.3256
2646    O2  26.0700  35.6200  46.8300 O     1   CO2  -0.3256
2647     C  28.7200  16.6400  44.0700 C     1   CO2   0.6512
2648    O1  28.2600  16.6600  45.1300 O     1   CO2  -0.3256
2649    O2  29.1900  16.5900  43.0300 O     1   CO2  -0.3256
2650     C  38.8400   8.1200   6.4600 C     1   CO2   0.6512
2651    O1  38.2000   7.1700   6.3100 O     1   CO2  -0.3256
2652    O2  39.5200   9.0300   6.5900 O     1   CO2  -0.3256
2653     C  41.6500  32.9200  32.6600 C     1   CO2   0.6512
2654    O1  41.1000  32.5000  31.7500 O     1   CO2  -0.3256
2655    O2  42.2600  33.3200  33.5500 O     1   CO2  -0.3256
2656     C  37.6700  41.8700  66.0800 C     1   CO2   0.6512
2657    O1  38.2700  42.5400  66.8000 O     1   CO2  -0.3256
2658    O2  37.0600  41.2200  65.3600 O     1   CO2  -0.3256
2659     C  40.3300  31.7600   6.7500 C     1   CO2   0.6512
2660    O1  39.6200  30.9300   6.4000 O     1   CO2  -0.3256
2661    O2  41.0500  32.5800   7.1000 O     1   CO2  -0.3256
2662     C  29.9200  21.3000  34.1600 C     1   CO2   0.6512
2663    O1  30.9700  21.1600  33.7000 O     1   CO2  -0.3256
2664    O2  28.8800  21.3800  34.6400 O     1   CO2  -0.3256
2665     C  42.4100  39.0000  27.7900 C     1   CO2   0.6512
2666    O1  42.6800  39.9400  28.3800 O     1   CO2  -0.3256
2667    O2  42.1500  38.0500  27.1900 O     1   CO2  -0.3256
2668     C   3.1100  42.5700  73.9000 C     1   CO2   0.6512
2669    O1   2.8200  41.4500  73.9100 O     1   CO2  -0.3256
2670    O2   3.4300  43.6700  73.9200 O     1   CO2  -0.3256
2671     C  27.9900   4.5900   6.5700 C     1   CO2   0.6512
2672    O1  28.9300   5.2500   6.4900 O     1   CO2  -0.3256
2673    O2  27.0900   3.8900   6.6600 O     1   CO2  -0.3256
2674     C  22.3600  41.2500  62.7100 C     1   CO2   0.6512
2675    O1  22.4500  42.3400  63.0600 O     1   CO2  -0.3256
2676    O2  22.2000  40.1600  62.3700 O     1   CO2  -0.3256
2677     C  22.9600   5.6200  62.4000 C     1   CO2   0.6512
2678    O1  23.2700   5.5500  63.5000 O     1   CO2  -0.3256
2679    O2  22.7100   5.6400  61.2800 O     1   CO2  -0.3256
2680     C   5.2800   2.0600  12.4200 C     1   CO2   0.6512
2681    O1   6.3300   2.3400  12.8000 O     1   CO2  -0.3256
2682    O2   4.2700   1.7200  11.9900 O     1   CO2  -0.3256
2683     C   6.1000  42.4000  55.9200 C     1   CO2   0.6512
2684    O1   6.6200  41.4000  55.7000 O     1   CO2  -0.3256
2685    O2   5.5700  43.3800  56.1800 O     1   CO2  -0.3256
2686     C  35.4200   9.2100  45.9700 C     1   CO2   0.6512
2687    O1  35.0800   8.5700  45.0800 O     1   CO2  -0.3256
2688    O2  35.8000   9.8400  46.8500 O     1   CO2  -0.3256
2689     C  34.0300  38.2100   6.8300 C     1   CO2   0.6512
2690    O1  33.0200  37.6800   6.9000 O     1   CO2  -0.3256
2691    O2  35.0600  38.7000   6.6800 O     1   CO2  -0.3256
2692     C  10.8500  24.5000   6.7700 C     1   CO2   0.6512
2693    O1  11.6700  23.7100   6.6100 O     1   CO2  -0.3256
2694    O2  10.0300  25.2800   6.9400 O     1   CO2  -0.3256
2695     C  20.3400  33.2400  18.3000 C     1   CO2   0.6512
2696    O1  21.2000  33.8900  18.7000 O     1   CO2  -0.3256
2697    O2  19.5000  32.6000  17.8500 O     1   CO2  -0.3256
2698     C  12.5600  13.8200  53.9500 C     1   CO2   0.6512
2699    O1  11.8500  13.0500  54.4300 O     1   CO2  -0.3256
2700    O2  13.2600  14.5400  53.4100 O     1   CO2  -0.3256
2701     C  22.4700  17.2500  15.8700 C     1   CO2   0.6512
2702    O1  22.4400  17.7600  16.9000 O     1   CO2  -0.3256
2703    O2  22.5000  16.8200  14.8100 O     1   CO2  -0.3256
2704     C   0.6900  36.4800  73.3900 C     1   CO2   0.6512
2705    O1   0.7500  35.3700  73.1000 O     1   CO2  -0.3256
2706    O2   0.6400  37.5900  73.7000 O     1   CO2  -0.3256
2707     C  21.6100  35.3600  46.3900 C     1   CO2   0.6512
2708    O1  21.5500  34.7600  47.3700 O     1   CO2  -0.3256
2709    O2  21.6800  35.9500  45.4100 O     1   CO2  -0.3256
2710     C  30.0300   1.4000  77.0500 C     1   CO2   0.6512
2711    O1  30.4800   0.3400  77.0200 O     1   CO2  -0.3256
2712    O2  29.6700   2.4900  77.0300 O     1   CO2  -0.3256
2713     C   5.9200  19.4000  45.1500 C     1   CO2   0.6512
2714    O1   6.6900  19.5500  44.3000 O     1   CO2  -0.3256
2715    O2   5.1800  19.3300  46.0200 O     1   CO2  -0.3256
2716     C  36.0700   7.6200  49.0700 C     1   CO2   0.6512
2717    O1  36.0100   8.1200  50.1100 O     1   CO2  -0.3256
2718    O2  36.1400   7.1000  48.0500 O     1   CO2  -0.3256
2719     C   5.7700  27.9400  77.0100 C     1   CO2   0.6512
2720    O1   6.4700  27.0300  76.9200 O     1   CO2  -0.3256
2721    O2   4.9900  28.7800  77.1200 O     1   CO2  -0.3256
2722     C  18.5300  21.8600  36.5700 C     1   CO2   0.6512
2723    O1  18.7900  22.6700  37.3300 O     1   CO2  -0.3256
2724    O2  18.2800  21.0600  35.7800 O     1   CO2  -0.3256
2725     C  33.5700  42.2300   6.6200 C     1   CO2   0.6512
2726    O1  34.4600  42.9500   6.6800 O     1   CO2  -0.3256
2727    O2  32.7000  41.4800   6.4900 O     1   CO2  -0.3256
2728     C  25.6900  36.3700  12.2000 C     1   CO2   0.6512
2729    O1  26.4900  35.6200  12.5500 O     1   CO2  -0.3256
2730    O2  24.8300  37.0300  11.8100 O     1   CO2  -0.3256
2731     C  10.9200  26.7600  27.7200 C     1   CO2   0.6512
2732    O1  10.7800  26.3700  28.7900 O     1   CO2  -0.3256
2733    O2  11.0500  27.1000  26.6300 O     1   CO2  -0.3256
2734     C   7.9600  11.6200  65.8000 C     1   CO2   0.6512
2735    O1   7.9700  11.2800  66.9000 O     1   CO2  -0.3256
2736    O2   7.8900  11.9400  64.7000 O     1   CO2  -0.3256
2737     C  35.8900  26.5300  27.6700 C     1   CO2   0.6512
2738    O1  36.2800  27.6000  27.8400 O     1   CO2  -0.3256
2739    O2  35.4600  25.4800  27.4900 O     1   CO2  -0.3256
2740     C  39.7400   2.5900  35.4600 C     1   CO2   0.6512
2741    O1  40.6400   1.8800  35.5600 O     1   CO2  -0.3256
2742    O2  38.8700   3.3200  35.3000 O     1   CO2  -0.3256
2743     C  28.9600  11.5800  10.0300 C     1   CO2   0.6512
2744    O1  28.1600  12.1000   9.4000 O     1   CO2  -0.3256
2745    O2  29.7600  11.1000  10.7000 O     1   CO2  -0.3256
2746     C  22.5600  31.7700  71.7600 C     1   CO2   0.6512
2747    O1  22.0800  32.8000  71.8900 O     1   CO2  -0.3256
2748    O2  23.0000  30.7100  71.6200 O     1   CO2  -0.3256
2749     C  26.4600  16.0200  77.0900 C     1   CO2   0.6512
2750    O1  25.4600  16.5600  77.2500 O     1   CO2  -0.3256
2751    O2  27.4300  15.4300  76.9300 O     1   CO2  -0.3256
2752     C   9.8100  27.0100  73.7000 C     1   CO2   0.6512
2753    O1  10.8100  26.7400  74.2000 O     1   CO2  -0.3256
2754    O2   8.8200  27.3500  73.2300 O     1   CO2  -0.3256
2755     C  17.8100  35.0300  66.2900 C     1   CO2   0.6512
2756    O1  18.7900  35.2200  66.8600 O     1   CO2  -0.3256
2757    O2  16.8300  34.8000  65.7300 O     1   CO2  -0.3256
2758     C  33.0800  27.2800  28.0700 C     1   CO2   0.6512
2759    O1  32.7500  27.1400  26.9800 O     1   CO2  -0.3256
2760    O2  33.4100  27.3900  29.1600 O     1   CO2  -0.3256
2761     C  22.7100  39.2000  45.6300 C     1   CO2   0.6512
2762    O1  22.5200  39.8900  44.7300 O     1   CO2  -0.3256
2763    O2  22.9300  38.5400  46.5400 O     1   CO2  -0.3256
2764     C  30.4400  27.5100  33.9000 C     1   CO2   0.6512
2765    O1  31.1700  28.0200  34.6300 O     1   CO2  -0.3256
2766    O2  29.6800  27.0000  33.2100 O     1   CO2  -0.3256
2767     C  39.4300  28.5300  56.9800 C     1   CO2   0.6512
2768    O1  40.3200  28.2000  56.3400 O     1   CO2  -0.3256
2769    O2  38.5800  28.9200  57.6500 O     1   CO2  -0.3256
2770     C   1.3900   1.6300  11.9700 C     1   CO2   0.6512
2771    O1   1.6800   0.7600  11.2700 O     1   CO2  -0.3256
2772    O2   1.0600   2.4600  12.6900 O     1   CO2  -0.3256
2773     C   9.0300  16.1200  30.7600 C     1   CO2   0.6512
2774    O1   9.9700  16.7500  30.5500 O     1   CO2  -0.3256
2775    O2   8.0800  15.5200  31.0000 O     1   CO2  -0.3256
2776     C  31.1400  25.0400  53.7000 C     1   CO2   0.6512
2777    O1  30.9300  24.1400  53.0200 O     1   CO2  -0.3256
2778    O2  31.3600  25.9200  54.4000 O     1   CO2  -0.3256
2779     C   1.8100  31.8700  21.0700 C     1   CO2   0.6512
2780    O1   1.9400  32.9400  21.4500 O     1   CO2  -0.3256
2781    O2   1.6100  30.7900  20.7300 O     1   CO2  -0.3256
2782     C  41.3700  31.1200  23.3900 C     1   CO2   0.6512
2783    O1  41.7400  30.1700  22.8700 O     1   CO2  -0.3256
2784    O2  41.0500  32.1000  23.9000 O     1   CO2  -0.3256
2785     C  42.9400  21.6200  73.8500 C     1   CO2   0.6512
2786    O1  42.2300  22.4200  73.4400 O     1   CO2  -0.3256
2787    O2  43.6700  20.8200  74.2300 O     1   CO2  -0.3256
2788     C  33.5800  16.0100  54.4300 C     1   CO2   0.6512
2789    O1  32.8100  16.8100  54.7100 O     1   CO2  -0.3256
2790    O2  34.3600  15.2100  54.1500 O     1   CO2  -0.3256
2791     C  15.5500  28.0300   6.5600 C     1   CO2   0.6512
2792    O1  15.0100  27.0200   6.6700 O     1   CO2  -0.3256
2793    O2  16.1100  29.0300   6.4900 O     1   CO2  -0.3256
2794     C  31.5000  28.8500  20.3300 C     1   CO2   0.6512
2795    O1  32.2300  28.2100  20.9500 O     1   CO2  -0.3256
2796    O2  30.7600  29.4500  19.7000 O     1   CO2  -0.3256
2797     C   0.2100   9.2400  18.5500 C     1   CO2   0.6512
2798    O1  -0.2200   8.5000  17.7800 O     1   CO2  -0.3256
2799    O2   0.5500   9.9900  19.3500 O     1   CO2  -0.3256
2800     C   2.5500  23.5800  56.9900 C     1   CO2   0.6512
2801    O1   2.4700  22.8800  57.9000 O     1   CO2  -0.3256
2802    O2   2.6800  24.2700  56.0900 O     1   CO2  -0.3256
2803     C   4.6100  28.3100  20.3200 C     1   CO2   0.6512
2804    O1   4.5500  28.6300  19.2200 O     1   CO2  -0.3256
2805    O2   4.7700  27.9800  21.4100 O     1   CO2  -0.3256
2806     C  34.8200   8.4400  10.5300 C     1   CO2   0.6512
2807    O1  34.7800   8.8100   9.4500 O     1   CO2  -0.3256
2808    O2  34.8100   8.0300  11.6000 O     1   CO2  -0.3256
2809     C  42.9300  35.8100  14.0100 C     1   CO2   0.6512
2810    O1  42.9500  36.8300  13.4800 O     1   CO2  -0.3256
2811    O2  42.9100  34.7800  14.5200 O     1   CO2  -0.3256
2812     C  25.9900  19.5300  12.3700 C     1   CO2   0.6512
2813    O1  25.6100  18.4900  12.7000 O     1   CO2  -0.3256
2814    O2  26.4300  20.5400  12.0500 O     1   CO2  -0.3256
2815     C  37.4800   1.4800  62.1200 C     1   CO2   0.6512
2816    O1  37.4000   2.1400  61.1800 O     1   CO2  -0.3256
2817    O2  37.5500   0.7800  63.0300 O     1   CO2  -0.3256
2818     C  30.9600  16.1300  39.1900 C     1   CO2   0.6512
2819    O1  30.8300  16.9500  38.3900 O     1   CO2  -0.3256
2820    O2  31.0300  15.3500  40.0200 O     1   CO2  -0.3256
2821     C  39.7900  24.2900  38.7400 C     1   CO2   0.6512
2822    O1  39.9200  25.3500  38.3100 O     1   CO2  -0.3256
2823    O2  39.6700  23.2300  39.1600 O     1   CO2  -0.3256
2824     C  40.0100  30.2800  34.3100 C     1   CO2   0.6512
2825    O1  40.6400  29.7400  33.5100 O     1   CO2  -0.3256
2826    O2  39.3600  30.8100  35.0900 O     1   CO2  -0.3256
2827     C  43.0600  10.9900  70.2500 C     1   CO2   0.6512
2828    O1  43.1100  10.0000  69.6600 O     1   CO2  -0.3256
2829    O2  42.9900  11.9900  70.8000 O     1   CO2  -0.3256
2830     C  14.8400  42.4200  56.9600 C     1   CO2   0.6512
2831    O1  14.2300  42.0900  57.8800 O     1   CO2  -0.3256
2832    O2  15.4600  42.7800  56.0600 O     1   CO2  -0.3256
2833     C   3.2800   8.1800  70.5900 C     1   CO2   0.6512
2834    O1   2.8100   8.2100  71.6400 O     1   CO2  -0.3256
2835    O2   3.7800   8.2000  69.5600 O     1   CO2  -0.3256
2836     C  19.5500  41.7300  60.5700 C     1   CO2   0.6512
2837    O1  19.6700  40.8300  59.8700 O     1   CO2  -0.3256
2838    O2  19.3900  42.6200  61.2800 O     1   CO2  -0.3256
2839     C  40.6300  41.7800  56.0300 C     1   CO2   0.6512
2840    O1  39.7500  42.2000  55.4200 O     1   CO2  -0.3256
2841    O2  41.5400  41.4600  56.6500 O     1   CO2  -0.3256
2842     C   3.9900  35.7600  18.7000 C     1   CO2   0.6512
2843    O1   4.5300  35.1000  17.9300 O     1   CO2  -0.3256
2844    O2   3.4500  36.4000  19.4800 O     1   CO2  -0.3256
2845     C   5.8500   6.3800  50.4900 C     1   CO2   0.6512
2846    O1   6.0200   5.8100  51.4800 O     1   CO2  -0.3256
2847    O2   5.7200   6.9400  49.5000 O     1   CO2  -0.3256
2848     C   5.4200  14.1400  64.7300 C     1   CO2   0.6512
2849    O1   4.5700  13.3700  64.6400 O     1   CO2  -0.3256
2850    O2   6.2700  14.9100  64.8000 O     1   CO2  -0.3256
2851     C  33.2600   7.4700  77.2400 C     1   CO2   0.6512
2852    O1  34.3300   7.0900  77.4000 O     1   CO2  -0.3256
2853    O2  32.1800   7.8100  77.0800 O     1   CO2  -0.3256
2854     C  19.2900  13.5900  15.7900 C     1   CO2   0.6512
2855    O1  19.8200  14.4400  15.2300 O     1   CO2  -0.3256
2856    O2  18.7400  12.8200  16.4500 O     1   CO2  -0.3256
2857     C  40.5800  27.9200  37.1200 C     1   CO2   0.6512
2858    O1  40.9500  27.8100  36.0400 O     1   CO2  -0.3256
2859    O2  40.2300  28.0100  38.2100 O     1   CO2  -0.3256
2860     C  28.9600  28.4300  59.8100 C     1   CO2   0.6512
2861    O1  28.4600  28.7400  58.8300 O     1   CO2  -0.3256
2862    O2  29.5000  28.1000  60.7700 O     1   CO2  -0.3256
2863     C  34.8400  41.9300  55.7600 C     1   CO2   0.6512
2864    O1  34.1900  42.7600  56.2400 O     1   CO2  -0.3256
2865    O2  35.4300  41.0600  55.2900 O     1   CO2  -0.3256
2866     C  31.6200   8.3300   6.6200 C     1   CO2   0.6512
2867    O1  30.7100   7.6400   6.7400 O     1   CO2  -0.3256
2868    O2  32.5300   9.0300   6.5300 O     1   CO2  -0.3256
2869     C  29.8700  14.2100  55.2100 C     1   CO2   0.6512
2870    O1  29.1800  13.9700  54.3200 O     1   CO2  -0.3256
2871    O2  30.5500  14.3900  56.1100 O     1   CO2  -0.3256
2872     C  31.2100   1.9800   6.7800 C     1   CO2   0.6512
2873    O1  31.2400   3.0900   6.4800 O     1   CO2  -0.3256
2874    O2  31.1800   0.8500   6.9900 O     1   CO2  -0.3256
2875     C  13.4500  23.5200  49.4800 C     1   CO2   0.6512
2876    O1  12.9000  22.7800  48.7900 O     1   CO2  -0.3256
2877    O2  14.0000  24.2900  50.1200 O     1   CO2  -0.3256
2878     C  31.3600   1.8400  34.4100 C     1   CO2   0.6512
2879    O1  30.8200   1.4400  33.4800 O     1   CO2  -0.3256
2880    O2  31.9600   2.2400  35.3000 O     1   CO2  -0.3256
2881     C  12.0000  19.6700  40.4500 C     1   CO2   0.6512
2882    O1  12.5400  19.0200  41.2200 O     1   CO2  -0.3256
2883    O2  11.4100  20.2700  39.6600 O     1   CO2  -0.3256
2884     C  36.3200  13.4000  40.9400 C     1   CO2   0.6512
2885    O1  35.4600  14.0100  41.4000 O     1   CO2  -0.3256
2886    O2  37.1200  12.7700  40.4000 O     1   CO2  -0.3256
2887     C  34.6800  12.9000  56.1800 C     1   CO2   0.6512
2888    O1  34.3900  11.9300  55.6600 O     1   CO2  -0.3256
2889    O2  34.9600  13.8500  56.7800 O     1   CO2  -0.3256
2890     C  14.4500  10.2400  76.9300 C     1   CO2   0.6512
2891    O1  14.6800  11.3500  76.7600 O     1   CO2  -0.3256
2892    O2  14.2900   9.1200  77.1500 O     1   CO2  -0.3256
2893     C  11.6000  20.4500  45.3100 C     1   CO2   0.6512
2894    O1  12.2300  20.2400  46.2400 O     1   CO2  -0.3256
2895    O2  10.9800  20.6600  44.3600 O     1   CO2  -0.3256
2896     C   1.0900  29.0000  37.4400 C     1   CO2   0.6512
2897    O1   1.3000  30.1300  37.4000 O     1   CO2  -0.3256
2898    O2   0.9300  27.8600  37.4400 O     1   CO2  -0.3256
2899     C  13.4700  11.3700  14.6900 C     1   CO2   0.6512
2900    O1  13.5800  10.2600  14.9700 O     1   CO2  -0.3256
2901    O2  13.3000  12.4900  14.5000 O     1   CO2  -0.3256
2902     C  38.9500  38.9500  77.0000 C     1   CO2   0.6512
2903    O1  39.6400  38.0300  77.0300 O     1   CO2  -0.3256
2904    O2  38.2300  39.8400  76.9500 O     1   CO2  -0.3256
2905     C  12.6800  18.0700   7.6000 C     1   CO2   0.6512
2906    O1  12.6400  18.0400   8.7500 O     1   CO2  -0.3256
2907    O2  12.7600  18.1500   6.4500 O     1   CO2  -0.3256
2908     C  13.1400  19.1100  77.2300 C     1   CO2   0.6512
2909    O1  12.0300  18.8200  77.1100 O     1   CO2  -0.3256
2910    O2  14.2400  19.4000  77.3400 O     1   CO2  -0.3256
2911     C  35.6500  21.1200  66.3500 C     1   CO2   0.6512
2912    O1  35.4800  20.8600  67.4600 O     1   CO2  -0.3256
2913    O2  35.8400  21.4300  65.2600 O     1   CO2  -0.3256
2914     C  11.9800  25.0000  53.2400 C     1   CO2   0.6512
2915    O1  11.1300  24.6900  52.5300 O     1   CO2  -0.3256
2916    O2  12.7900  25.3600  53.9800 O     1   CO2  -0.3256
2917     C  27.3900   0.5700   6.7700 C     1   CO2   0.6512
2918    O1  26.4400  -0.0600   6.9200 O     1   CO2  -0.3256
2919    O2  28.3300   1.2200   6.6600 O     1   CO2  -0.3256
2920     C   9.0600   1.3300  17.2100 C     1   CO2   0.6512
2921    O1   9.3200   0.4700  17.9200 O     1   CO2  -0.3256
2922    O2   8.8000   2.1700  16.4600 O     1   CO2  -0.3256
2923     C  21.0500  20.2800  24.0500 C     1   CO2   0.6512
2924    O1  20.5800  19.6000  23.2500 O     1   CO2  -0.3256
2925    O2  21.4700  20.9800  24.8500 O     1   CO2  -0.3256
2926     C  34.7200  27.3300  36.0800 C     1   CO2   0.6512
2927    O1  35.1700  28.3600  36.2900 O     1   CO2  -0.3256
2928    O2  34.2200  26.3100  35.8900 O     1   CO2  -0.3256
2929     C   6.2700  21.7700  72.6300 C     1   CO2   0.6512
2930    O1   6.4800  22.4000  73.5600 O     1   CO2  -0.3256
2931    O2   6.0800  21.1500  71.6700 O     1   CO2  -0.3256
2932     C  28.1100   6.0400  66.6800 C     1   CO2   0.6512
2933    O1  29.0000   6.6000  67.1400 O     1   CO2  -0.3256
2934    O2  27.2400   5.5000  66.1500 O     1   CO2  -0.3256
2935     C  23.0200  12.6100  40.3800 C     1   CO2   0.6512
2936    O1  22.4000  13.4800  40.8100 O     1   CO2  -0.3256
2937    O2  23.6000  11.7400  39.9000 O     1   CO2  -0.3256
2938     C  13.1600  30.5600  73.1500 C     1   CO2   0.6512
2939    O1  12.1400  30.0400  73.2500 O     1   CO2  -0.3256
2940    O2  14.1900  31.0700  73.1000 O     1   CO2  -0.3256
2941     C  39.2500  16.0300  31.3800 C     1   CO2   0.6512
2942    O1  39.4400  16.5600  32.3900 O     1   CO2  -0.3256
2943    O2  39.0800  15.5600  30.3500 O     1   CO2  -0.3256
2944     C  12.1900   7.7600  33.4300 C     1   CO2   0.6512
2945    O1  11.5900   8.7400  33.3700 O     1   CO2  -0.3256
2946    O2  12.8200   6.8000  33.4800 O     1   CO2  -0.3256
2947     C  12.2700  10.7300  41.0800 C     1   CO2   0.6512
2948    O1  12.4200  10.4200  39.9800 O     1   CO2  -0.3256
2949    O2  12.1200  11.0200  42.1800 O     1   CO2  -0.3256
2950     C  21.3500   6.5300  76.8600 C     1   CO2   0.6512
2951    O1  21.4600   5.4600  77.2400 O     1   CO2  -0.3256
2952    O2  21.2200   7.6200  76.5100 O     1   CO2  -0.3256
2953     C   9.2300  12.9000  54.2600 C     1   CO2   0.6512
2954    O1   9.3700  13.4900  55.2300 O     1   CO2  -0.3256
2955    O2   9.1200  12.3000  53.2800 O     1   CO2  -0.3256
2956     C   0.4600  33.5700   6.6800 C     1   CO2   0.6512
2957    O1   0.6700  32.4700   6.9500 O     1   CO2  -0.3256
2958    O2   0.3200  34.6900   6.4700 O     1   CO2  -0.3256
2959     C   6.9400  42.7900  39.7600 C     1   CO2   0.6512
2960    O1   7.1100  42.5800  40.8700 O     1   CO2  -0.3256
2961    O2   6.7200  43.0500  38.6600 O     1   CO2  -0.3256
2962     C  22.7900  10.7600  63.4700 C     1   CO2   0.6512
2963    O1  23.0700  11.8600  63.6400 O     1   CO2  -0.3256
2964    O2  22.5000   9.6700  63.2500 O     1   CO2  -0.3256
2965     C  25.9600  13.3000  48.1600 C     1   CO2   0.6512
2966    O1  25.4900  14.1400  48.7800 O     1   CO2  -0.3256
2967    O2  26.3900  12.4300  47.5500 O     1   CO2  -0.3256
2968     C  42.4300  25.3600  32.0300 C     1   CO2   0.6512
2969    O1  42.8300  24.3000  31.8800 O     1   CO2  -0.3256
2970    O2  42.0200  26.4300  32.1900 O     1   CO2  -0.3256
2971     C  41.0100  23.8200  11.5200 C     1   CO2   0.6512
2972    O1  41.6800  24.5000  10.8800 O     1   CO2  -0.3256
2973    O2  40.2700  23.2200  12.1600 O     1   CO2  -0.3256
2974     C  14.8900  36.2100  67.2700 C     1   CO2   0.6512
2975    O1  14.0400  36.5700  66.5800 O     1   CO2  -0.3256
2976    O2  15.7200  35.9100  68.0000 O     1   CO2  -0.3256
2977     C   2.3700  23.7600  28.8300 C     1   CO2   0.6512
2978    O1   2.6000  22.6300  28.9100 O     1   CO2  -0.3256
2979    O2   2.0600  24.8600  28.6900 O     1   CO2  -0.3256
2980     C  11.7000  34.5400  68.5500 C     1   CO2   0.6512
2981    O1  10.5800  34.7700  68.4100 O     1   CO2  -0.3256
2982    O2  12.8300  34.3700  68.6300 O     1   CO2  -0.3256
2983     C  35.6200  16.8100  12.6200 C     1   CO2   0.6512
2984    O1  34.9700  17.5600  12.0400 O     1   CO2  -0.3256
2985    O2  36.2100  16.0400  13.2400 O     1   CO2  -0.3256
2986     C   9.7900   4.5700   6.7500 C     1   CO2   0.6512
2987    O1  10.5300   5.3300   7.1900 O     1   CO2  -0.3256
2988    O2   9.1300   3.6800   6.4300 O     1   CO2  -0.3256
2989     C  38.7900  24.1600  27.3500 C     1   CO2   0.6512
2990    O1  39.1700  23.5400  26.4600 O     1   CO2  -0.3256
2991    O2  38.4600  24.7900  28.2500 O     1   CO2  -0.3256
2992     C  37.4900  15.5200  56.5800 C     1   CO2   0.6512
2993    O1  37.2500  16.2500  55.7300 O     1   CO2  -0.3256
2994    O2  37.7500  14.7500  57.3900 O     1   CO2  -0.3256
2995     C   8.7600  15.4500  60.6700 C     1   CO2   0.6512
2996    O1   7.6200  15.5500  60.7100 O     1   CO2  -0.3256
2997    O2   9.9000  15.3000  60.6700 O     1   CO2  -0.3256
2998     C   5.3800  25.8100  14.4300 C     1   CO2   0.6512
2999    O1   5.7800  26.0500  15.4800 O     1   CO2  -0.3256
3000    O2   5.0600  25.5100  13.3700 O     1   CO2  -0.3256
3001     C  14.0200  26.8700  48.0200 C     1   CO2   0.6512
3002    O1  13.2700  26.3600  47.3100 O     1   CO2  -0.3256
3003    O2  14.7500  27.4400  48.6900 O     1   CO2  -0.3256
3004     C  14.6900  26.5200  51.8800 C     1   CO2   0.6512
3005    O1  15.5300  25.7600  52.0600 O     1   CO2  -0.3256
3006    O2  13.8600  27.2900  51.7100 O     1   CO2  -0.3256
3007     C  31.0400  40.8100  40.1600 C     1   CO2   0.6512
3008    O1  29.9200  40.9300  39.9500 O     1   CO2  -0.3256
3009    O2  32.1800  40.7100  40.3100 O     1   CO2  -0.3256
3010     C   4.7900  26.4600   9.8800 C     1   CO2   0.6512
3011    O1   5.2300  27.4800   9.5900 O     1   CO2  -0.3256
3012    O2   4.3800  25.4200  10.1200 O     1   CO2  -0.3256
3013     C  43.1100  36.4400  47.6200 C     1   CO2   0.6512
3014    O1  43.6500  37.4400  47.7700 O     1   CO2  -0.3256
3015    O2  42.6200  35.4000  47.5000 O     1   CO2  -0.3256
3016     C  20.4600  37.9800  48.9900 C     1   CO2   0.6512
3017    O1  21.0000  38.2000  49.9700 O     1   CO2  -0.3256
3018    O2  19.9800  37.7200  47.9800 O     1   CO2  -0.3256
3019     C  24.7900   8.5800  22.5100 C     1   CO2   0.6512
3020    O1  25.6400   8.6600  21.7400 O     1   CO2  -0.3256
3021    O2  24.0000   8.5800  23.3400 O     1   CO2  -0.3256
3022     C  42.6300   5.3500  35.2300 C     1   CO2   0.6512
3023    O1  43.7700   5.2600  35.4000 O     1   CO2  -0.3256
3024    O2  41.5100   5.4500  35.0400 O     1   CO2  -0.3256
3025     C   8.3500  11.6300   6.4200 C     1   CO2   0.6512
3026    O1   9.2300  10.9000   6.2900 O     1   CO2  -0.3256
3027    O2   7.5200  12.4200   6.4800 O     1   CO2  -0.3256
3028     C  17.4300  28.6200  17.0100 C     1   CO2   0.6512
3029    O1  17.2400  29.3100  16.1100 O     1   CO2  -0.3256
3030    O2  17.6300  27.9800  17.9400 O     1   CO2  -0.3256
3031     C  17.7800  28.9500  68.0400 C     1   CO2   0.6512
3032    O1  18.7900  28.6500  68.5000 O     1   CO2  -0.3256
3033    O2  16.7800  29.2900  67.6100 O     1   CO2  -0.3256
3034     C  19.6600  24.9300  40.1600 C     1   CO2   0.6512
3035    O1  20.4100  25.7400  39.8400 O     1   CO2  -0.3256
3036    O2  18.9100  24.1300  40.4900 O     1   CO2  -0.3256
3037     C  39.7800  42.6200  33.3300 C     1   CO2   0.6512
3038    O1  38.6600  42.4500  33.0900 O     1   CO2  -0.3256
3039    O2  40.8800  42.8300  33.5800 O     1   CO2  -0.3256
3040     C   5.2700   8.2300  10.9900 C     1   CO2   0.6512
3041    O1   4.4000   7.4900  10.9100 O     1   CO2  -0.3256
3042    O2   6.1400   8.9800  11.0800 O     1   CO2  -0.3256
3043     C  17.0500  10.7700  73.3100 C     1   CO2   0.6512
3044    O1  16.9200  11.9000  73.4600 O     1   CO2  -0.3256
3045    O2  17.1500   9.6300  73.1800 O     1   CO2  -0.3256
3046     C  30.6300   3.3100  10.3600 C     1   CO2   0.6512
3047    O1  30.1700   3.1700  11.4000 O     1   CO2  -0.3256
3048    O2  31.0900   3.4300   9.3100 O     1   CO2  -0.3256
3049     C  21.7400  41.4600  13.2700 C     1   CO2   0.6512
3050    O1  22.2900  40.5200  12.9100 O     1   CO2  -0.3256
3051    O2  21.1800  42.3900  13.6500 O     1   CO2  -0.3256
3052     C  31.8500  13.4300  35.2300 C     1   CO2   0.6512
3053    O1  32.7000  14.1700  35.0400 O     1   CO2  -0.3256
3054    O2  31.0400  12.6400  35.4400 O     1   CO2  -0.3256
3055     C  11.3700  34.7700  60.7500 C     1   CO2   0.6512
3056    O1  11.8200  35.0000  61.7800 O     1   CO2  -0.3256
3057    O2  10.9300  34.5700  59.7100 O     1   CO2  -0.3256
3058     C   9.1300  34.6600  46.9200 C     1   CO2   0.6512
3059    O1   8.9300  33.7600  47.6000 O     1   CO2  -0.3256
3060    O2   9.3200  35.5500  46.2100 O     1   CO2  -0.3256
3061     C  13.2600  19.5600  53.7700 C     1   CO2   0.6512
3062    O1  12.2200  19.2200  53.4000 O     1   CO2  -0.3256
3063    O2  14.3100  19.8700  54.1300 O     1   CO2  -0.3256
3064     C  22.1600   4.8500  20.6200 C     1   CO2   0.6512
3065    O1  21.9800   4.9500  21.7500 O     1   CO2  -0.3256
3066    O2  22.3600   4.7000  19.5000 O     1   CO2  -0.3256
3067     C   7.7100  31.2000  29.6400 C     1   CO2   0.6512
3068    O1   8.4400  31.7500  28.9400 O     1   CO2  -0.3256
3069    O2   6.9700  30.6600  30.3400 O     1   CO2  -0.3256
3070     C  32.3800  24.0900  37.1600 C     1   CO2   0.6512
3071    O1  33.0900  23.3400  36.6600 O     1   CO2  -0.3256
3072    O2  31.6800  24.8400  37.6700 O     1   CO2  -0.3256
3073     C  25.2000   6.9300  77.0400 C     1   CO2   0.6512
3074    O1  26.2500   6.4700  76.9700 O     1   CO2  -0.3256
3075    O2  24.1400   7.3600  77.0900 O     1   CO2  -0.3256
3076     C   8.4100  11.5600  18.9700 C     1   CO2   0.6512
3077    O1   7.4600  11.4400  18.3400 O     1   CO2  -0.3256
3078    O2   9.3900  11.7000  19.5500 O     1   CO2  -0.3256
3079     C  15.9400  10.1700  10.5500 C     1   CO2   0.6512
3080    O1  15.6600   9.2600   9.9100 O     1   CO2  -0.3256
3081    O2  16.2100  11.0800  11.2000 O     1   CO2  -0.3256
3082     C   5.6200  10.2800  68.2000 C     1   CO2   0.6512
3083    O1   4.9900  10.7500  67.3600 O     1   CO2  -0.3256
3084    O2   6.2400   9.8600  69.0800 O     1   CO2  -0.3256
3085     C   1.6900  29.9800  17.6700 C     1   CO2   0.6512
3086    O1   2.6500  30.5500  17.3900 O     1   CO2  -0.3256
3087    O2   0.7200  29.4400  17.9500 O     1   CO2  -0.3256
3088     C   7.6200  20.2600  47.4900 C     1   CO2   0.6512
3089    O1   8.4900  20.3300  46.7400 O     1   CO2  -0.3256
3090    O2   6.7500  20.2100  48.2400 O     1   CO2  -0.3256
3091     C  20.2400  37.1100  42.4100 C     1   CO2   0.6512
3092    O1  19.4400  36.3100  42.6000 O     1   CO2  -0.3256
3093    O2  21.0700  37.8800  42.2400 O     1   CO2  -0.3256
3094     C  32.1500  23.2200  63.7400 C     1   CO2   0.6512
3095    O1  32.4900  22.6000  62.8300 O     1   CO2  -0.3256
3096    O2  31.7700  23.8300  64.6400 O     1   CO2  -0.3256
3097     C  24.1500  28.0900  13.4200 C     1   CO2   0.6512
3098    O1  23.7200  27.2900  12.7200 O     1   CO2  -0.3256
3099    O2  24.5900  28.8800  14.1300 O     1   CO2  -0.3256
3100     C   0.9000   8.6600  35.2000 C     1   CO2   0.6512
3101    O1   0.5300   9.2100  34.2600 O     1   CO2  -0.3256
3102    O2   1.2500   8.1100  36.1400 O     1   CO2  -0.3256
3103     C   8.4400  18.6100  52.9100 C     1   CO2   0.6512
3104    O1   8.4600  19.4400  52.1200 O     1   CO2  -0.3256
3105    O2   8.3900  17.7500  53.6800 O     1   CO2  -0.3256
3106     C  17.5200  31.4700   6.6300 C     1   CO2   0.6512
3107    O1  16.5900  32.1300   6.7100 O     1   CO2  -0.3256
3108    O2  18.4700  30.8200   6.5900 O     1   CO2  -0.3256
3109     C  11.4600  39.2000   6.6800 C     1   CO2   0.6512
3110    O1  10.5300  38.5900   6.9600 O     1   CO2  -0.3256
3111    O2  12.4000  39.8000   6.3900 O     1   CO2  -0.3256
3112     C   0.8900  11.0100   6.6500 C     1   CO2   0.6512
3113    O1   1.1100  12.1200   6.7900 O     1   CO2  -0.3256
3114    O2   0.7200   9.8700   6.5700 O     1   CO2  -0.3256
3115     C  33.1100  25.2300  33.3700 C     1   CO2   0.6512
3116    O1  33.3400  24.1100  33.4900 O     1   CO2  -0.3256
3117    O2  32.9600  26.3700  33.3600 O     1   CO2  -0.3256
3118     C  14.4300  42.0400  41.8200 C     1   CO2   0.6512
3119    O1  14.0300  43.0900  42.0500 O     1   CO2  -0.3256
3120    O2  14.8300  40.9900  41.6000 O     1   CO2  -0.3256
3121     C  11.0600  12.1100  67.9200 C     1   CO2   0.6512
3122    O1  10.5500  13.1400  67.8300 O     1   CO2  -0.3256
3123    O2  11.5200  11.0800  68.1100 O     1   CO2  -0.3256
3124     C  27.9400  14.3800  60.1100 C     1   CO2   0.6512
3125    O1  27.7000  14.1700  59.0100 O     1   CO2  -0.3256
3126    O2  28.1800  14.6300  61.2000 O     1   CO2  -0.3256
3127     C  21.2600  41.5600  48.4300 C     1   CO2   0.6512
3128    O1  21.0400  40.6800  47.7300 O     1   CO2  -0.3256
3129    O2  21.4700  42.4600  49.1100 O     1   CO2  -0.3256
3130     C  18.1100   9.1600  25.2000 C     1   CO2   0.6512
3131    O1  17.4500   9.4200  24.3000 O     1   CO2  -0.3256
3132    O2  18.7500   8.9500  26.1300 O     1   CO2  -0.3256
3133     C  38.4800  12.1000  54.7100 C     1   CO2   0.6512
3134    O1  37.7000  12.4900  55.4600 O     1   CO2  -0.3256
3135    O2  39.2900  11.7100  53.9900 O     1   CO2  -0.3256
3136     C   8.4800   7.1200  33.3700 C     1   CO2   0.6512
3137    O1   7.5700   7.8000  33.5500 O     1   CO2  -0.3256
3138    O2   9.4200   6.5100  33.1000 O     1   CO2  -0.3256
3139     C   2.7300  11.1400  16.3000 C     1   CO2   0.6512
3140    O1   2.2500  12.1800  16.3600 O     1   CO2  -0.3256
3141    O2   3.3000  10.1400  16.3400 O     1   CO2  -0.3256
3142     C  10.2000  38.0000  57.7900 C     1   CO2   0.6512
3143    O1  10.7300  37.7400  58.7800 O     1   CO2  -0.3256
3144    O2   9.6500  38.3200  56.8400 O     1   CO2  -0.3256
3145     C  27.5400  18.6900  63.3200 C     1   CO2   0.6512
3146    O1  27.1600  19.7400  63.0500 O     1   CO2  -0.3256
3147    O2  27.9700  17.6600  63.5700 O     1   CO2  -0.3256
3148     C  29.7000  39.2700  65.7900 C     1   CO2   0.6512
3149    O1  28.6200  38.8800  65.8900 O     1   CO2  -0.3256
3150    O2  30.7400  39.7400  65.6800 O     1   CO2  -0.3256
3151     C  19.5000   0.1800  25.2400 C     1   CO2   0.6512
3152    O1  20.5700   0.1000  24.8500 O     1   CO2  -0.3256
3153    O2  18.4000   0.2400  25.5700 O     1   CO2  -0.3256
3154     C  30.7300  27.0800  44.2000 C     1   CO2   0.6512
3155    O1  29.8100  26.6500  44.7500 O     1   CO2  -0.3256
3156    O2  31.5800  27.5600  43.6000 O     1   CO2  -0.3256
3157     C   4.8100  22.3400  68.2700 C     1   CO2   0.6512
3158    O1   3.7800  22.6200  67.8600 O     1   CO2  -0.3256
3159    O2   5.8400  22.0100  68.6800 O     1   CO2  -0.3256
3160     C  34.3200  41.6600  38.3100 C     1   CO2   0.6512
3161    O1  33.4300  42.3900  38.3300 O     1   CO2  -0.3256
3162    O2  35.2000  40.9200  38.3000 O     1   CO2  -0.3256
3163     C  34.4300  11.1500  37.3300 C     1   CO2   0.6512
3164    O1  33.7200  11.9200  36.8500 O     1   CO2  -0.3256
3165    O2  35.1400  10.4100  37.8400 O     1   CO2  -0.3256
3166     C  29.9700  40.2500   6.8100 C     1   CO2   0.6512
3167    O1  29.4100  41.2400   6.9900 O     1   CO2  -0.3256
3168    O2  30.5700  39.2900   6.6000 O     1   CO2  -0.3256
3169     C  24.1900   6.7700   9.7200 C     1   CO2   0.6512
3170    O1  24.6700   5.9900  10.4100 O     1   CO2  -0.3256
3171    O2  23.7700   7.5700   9.0100 O     1   CO2  -0.3256
3172     C   5.4400  38.4200  27.3000 C     1   CO2   0.6512
3173    O1   4.6100  38.8900  26.6500 O     1   CO2  -0.3256
3174    O2   6.2700  38.0400  27.9900 O     1   CO2  -0.3256
3175     C   0.9800  42.1000  77.1000 C     1   CO2   0.6512
3176    O1   1.4300  43.1400  77.2800 O     1   CO2  -0.3256
3177    O2   0.5200  41.0600  76.9400 O     1   CO2  -0.3256
3178     C  20.0000  29.7800  71.1700 C     1   CO2   0.6512
3179    O1  20.0200  30.8800  70.8600 O     1   CO2  -0.3256
3180    O2  20.0100  28.6500  71.4000 O     1   CO2  -0.3256
3181     C  21.8500  24.4200  47.9200 C     1   CO2   0.6512
3182    O1  21.5200  23.7000  48.7500 O     1   CO2  -0.3256
3183    O2  22.1800  25.1600  47.1100 O     1   CO2  -0.3256
3184     C  33.2800  25.6500  18.6400 C     1   CO2   0.6512
3185    O1  33.4000  26.2600  17.6800 O     1   CO2  -0.3256
3186    O2  33.1700  24.9800  19.5700 O     1   CO2  -0.3256
3187     C  17.0500   1.5500  10.9600 C     1   CO2   0.6512
3188    O1  16.5400   2.0400  10.0600 O     1   CO2  -0.3256
3189    O2  17.5900   1.0700  11.8600 O     1   CO2  -0.3256
3190     C  37.1600  21.2000  44.8300 C     1   CO2   0.6512
3191    O1  37.1900  20.0600  44.7500 O     1   CO2  -0.3256
3192    O2  37.1100  22.3500  44.8800 O     1   CO2  -0.3256
3193     C  27.6300  22.5300  76.9000 C     1   CO2   0.6512
3194    O1  26.8400  21.7200  76.6900 O     1   CO2  -0.3256
3195    O2  28.4700  23.2600  77.1800 O     1   CO2  -0.3256
3196     C  26.1500  24.1400  13.2600 C     1   CO2   0.6512
3197    O1  25.1600  24.5100  13.7100 O     1   CO2  -0.3256
3198    O2  27.1200  23.7500  12.7900 O     1   CO2  -0.3256
3199     C   2.0100  31.6200  73.5400 C     1   CO2   0.6512
3200    O1   2.6300  32.5500  73.7700 O     1   CO2  -0.3256
3201    O2   1.4300  30.6400  73.3500 O     1   CO2  -0.3256
3202     C  36.9600  26.3100  39.3600 C     1   CO2   0.6512
3203    O1  37.2900  27.2400  39.9500 O     1   CO2  -0.3256
3204    O2  36.6300  25.4100  38.7300 O     1   CO2  -0.3256
3205     C  29.8700  15.4900  65.3100 C     1   CO2   0.6512
3206    O1  28.8000  15.3700  65.7100 O     1   CO2  -0.3256
3207    O2  30.9400  15.6000  64.8900 O     1   CO2  -0.3256
3208     C  30.4200  17.3900  67.5700 C     1   CO2   0.6512
3209    O1  30.3800  16.3200  68.0000 O     1   CO2  -0.3256
3210    O2  30.3800  18.4400  67.1200 O     1   CO2  -0.3256
3211     C   8.3800  37.1700  30.1100 C     1   CO2   0.6512
3212    O1   8.3300  38.3100  30.2300 O     1   CO2  -0.3256
3213    O2   8.5000  36.0300  30.0800 O     1   CO2  -0.3256
3214     C  31.7100  28.1100  77.2200 C     1   CO2   0.6512
3215    O1  32.4900  27.2800  77.3900 O     1   CO2  -0.3256
3216    O2  30.9200  28.9100  77.0100 O     1   CO2  -0.3256
3217     C  37.9600  22.9800   9.7300 C     1   CO2   0.6512
3218    O1  38.6600  23.8800   9.6300 O     1   CO2  -0.3256
3219    O2  37.3200  22.0500   9.9200 O     1   CO2  -0.3256
3220     C  27.6900  14.6200  35.4900 C     1   CO2   0.6512
3221    O1  26.5900  14.4300  35.7900 O     1   CO2  -0.3256
3222    O2  28.7700  14.8700  35.2000 O     1   CO2  -0.3256
3223     C  39.6500   1.4400  23.7600 C     1   CO2   0.6512
3224    O1  40.2000   1.1000  22.8100 O     1   CO2  -0.3256
3225    O2  39.0400   1.6900  24.7000 O     1   CO2  -0.3256
3226     C  26.9700   5.2700  69.6800 C     1   CO2   0.6512
3227    O1  26.8300   6.1200  68.9200 O     1   CO2  -0.3256
3228    O2  27.1000   4.3800  70.4000 O     1   CO2  -0.3256
3229     C   6.9700  17.0800  33.8500 C     1   CO2   0.6512
3230    O1   7.8500  17.6200  33.3400 O     1   CO2  -0.3256
3231    O2   6.0700  16.5600  34.3300 O     1   CO2  -0.3256
3232     C  32.7900  10.8100  41.7300 C     1   CO2   0.6512
3233    O1  32.2200   9.9700  42.2700 O     1   CO2  -0.3256
3234    O2  33.4000  11.6100  41.1700 O     1   CO2  -0.3256
3235     C  19.6000  35.1700  76.8500 C     1   CO2   0.6512
3236    O1  18.6100  34.5800  76.7700 O     1   CO2  -0.3256
3237    O2  20.5900  35.7300  76.9400 O     1   CO2  -0.3256
3238     C   8.6300  23.0100  29.2200 C     1   CO2   0.6512
3239    O1   7.8600  23.7800  28.8800 O     1   CO2  -0.3256
3240    O2   9.4100  22.2500  29.5900 O     1   CO2  -0.3256
3241     C  34.2200  12.4900  74.2400 C     1   CO2   0.6512
3242    O1  35.3600  12.3900  74.4000 O     1   CO2  -0.3256
3243    O2  33.0800  12.5400  74.1100 O     1   CO2  -0.3256
3244     C   8.6400   4.6700  46.3000 C     1   CO2   0.6512
3245    O1   9.3300   3.9100  45.8000 O     1   CO2  -0.3256
3246    O2   7.9300   5.3800  46.8600 O     1   CO2  -0.3256
3247     C   0.1400  30.9500  34.9700 C     1   CO2   0.6512
3248    O1  -0.8700  31.0400  35.5100 O     1   CO2  -0.3256
3249    O2   1.1600  30.8400  34.4600 O     1   CO2  -0.3256
3250     C   0.1500  42.3100  64.8200 C     1   CO2   0.6512
3251    O1   0.4400  42.8000  63.8200 O     1   CO2  -0.3256
3252    O2  -0.0700  41.7900  65.8100 O     1   CO2  -0.3256
3253     C  17.2000  38.3400  14.2400 C     1   CO2   0.6512
3254    O1  16.5300  39.0600  14.8400 O     1   CO2  -0.3256
3255    O2  17.9200  37.6600  13.6600 O     1   CO2  -0.3256
3256     C   2.6200   5.5900  65.9600 C     1   CO2   0.6512
3257    O1   1.9800   5.0300  65.1900 O     1   CO2  -0.3256
3258    O2   3.2200   6.1000  66.8000 O     1   CO2  -0.3256
3259     C  40.0400   9.8200  57.9200 C     1   CO2   0.6512
3260    O1  40.9000   9.5800  58.6500 O     1   CO2  -0.3256
3261    O2  39.1100  10.0100  57.2700 O     1   CO2  -0.3256
3262     C  24.8500  22.8200  65.4100 C     1   CO2   0.6512
3263    O1  25.3300  21.7800  65.5100 O     1   CO2  -0.3256
3264    O2  24.3900  23.8600  65.2200 O     1   CO2  -0.3256
3265     C  36.8700   4.0300  25.2200 C     1   CO2   0.6512
3266    O1  37.8100   4.6800  25.2300 O     1   CO2  -0.3256
3267    O2  35.9200   3.3800  25.2900 O     1   CO2  -0.3256
3268     C  33.8000   7.0200  26.3400 C     1   CO2   0.6512
3269    O1  33.5600   8.1000  26.0400 O     1   CO2  -0.3256
3270    O2  34.0100   5.9200  26.5800 O     1   CO2  -0.3256
3271     C  18.7800  40.6100  39.6000 C     1   CO2   0.6512
3272    O1  18.2200  40.4500  40.5900 O     1   CO2  -0.3256
3273    O2  19.4100  40.7800  38.6500 O     1   CO2  -0.3256
3274     C  17.4600   6.2800  76.9900 C     1   CO2   0.6512
3275    O1  18.2700   5.4700  77.0400 O     1   CO2  -0.3256
3276    O2  16.5900   7.0300  77.0500 O     1   CO2  -0.3256
3277     C  31.6700  20.1400  69.6800 C     1   CO2   0.6512
3278    O1  31.2400  19.1200  69.9900 O     1   CO2  -0.3256
3279    O2  32.0400  21.1900  69.4100 O     1   CO2  -0.3256
3280     C  33.9300  18.3400  66.7300 C     1   CO2   0.6512
3281    O1  33.1400  17.9900  67.4900 O     1   CO2  -0.3256
3282    O2  34.7000  18.6300  65.9300 O     1   CO2  -0.3256
3283     C  18.2300  14.0000  27.4400 C     1   CO2   0.6512
3284    O1  18.9800  14.4000  26.6600 O     1   CO2  -0.3256
3285    O2  17.4200  13.6800  28.1900 O     1   CO2  -0.3256
3286     C  34.4800  38.9600  34.0800 C     1   CO2   0.6512
3287    O1  35.0300  38.4700  33.2100 O     1   CO2  -0.3256
3288    O2  33.9100  39.4800  34.9400 O     1   CO2  -0.3256
3289     C  11.6500  12.3200  17.4700 C     1   CO2   0.6512
3290    O1  10.7900  12.9000  16.9600 O     1   CO2  -0.3256
3291    O2  12.5500  11.7900  17.9400 O     1   CO2  -0.3256
3292     C  35.4500  19.1200  74.4300 C     1   CO2   0.6512
3293    O1  36.4900  19.5300  74.1800 O     1   CO2  -0.3256
3294    O2  34.3900  18.7100  74.6000 O     1   CO2  -0.3256
3295     C  14.6000  29.2700  65.9500 C     1   CO2   0.6512
3296    O1  13.8400  29.6200  66.7300 O     1   CO2  -0.3256
3297    O2  15.3600  28.8900  65.1800 O     1   CO2  -0.3256
3298     C   0.9400  26.0400  21.8200 C     1   CO2   0.6512
3299    O1   0.5200  25.0800  21.3600 O     1   CO2  -0.3256
3300    O2   1.3800  26.9900  22.2900 O     1   CO2  -0.3256
3301     C  24.6400  22.8100  60.6000 C     1   CO2   0.6512
3302    O1  25.5000  23.4900  60.9400 O     1   CO2  -0.3256
3303    O2  23.7400  22.2000  60.2300 O     1   CO2  -0.3256
3304     C   3.9100  11.6200   9.6400 C     1   CO2   0.6512
3305    O1   4.2000  12.7300   9.7700 O     1   CO2  -0.3256
3306    O2   3.5900  10.5400   9.4500 O     1   CO2  -0.3256
3307     C  11.6200  14.1000  39.2600 C     1   CO2   0.6512
3308    O1  12.6300  13.8700  38.7700 O     1   CO2  -0.3256
3309    O2  10.6000  14.3000  39.7600 O     1   CO2  -0.3256
3310     C  31.5600  23.2000  42.8800 C     1   CO2   0.6512
3311    O1  31.8300  22.2800  42.2600 O     1   CO2  -0.3256
3312    O2  31.2600  24.1200  43.5100 O     1   CO2  -0.3256
3313     C  41.8300   3.4100  58.3400 C     1   CO2   0.6512
3314    O1  41.0100   2.6300  58.5800 O     1   CO2  -0.3256
3315    O2  42.5800   4.2100  58.0300 O     1   CO2  -0.3256
3316     C  34.3100   7.1200  32.5000 C     1   CO2   0.6512
3317    O1  35.1600   6.9900  33.2700 O     1   CO2  -0.3256
3318    O2  33.4700   7.2500  31.7300 O     1   CO2  -0.3256
3319     C   3.6600  32.3300  55.1900 C     1   CO2   0.6512
3320    O1   3.1300  32.0700  56.1800 O     1   CO2  -0.3256
3321    O2   4.2600  32.5800  54.2400 O     1   CO2  -0.3256
3322     C  18.4600  39.6700  18.5600 C     1   CO2   0.6512
3323    O1  18.7400  40.1500  19.5700 O     1   CO2  -0.3256
3324    O2  18.1900  39.2100  17.5400 O     1   CO2  -0.3256
3325     C  37.5300  39.9700  46.1900 C     1   CO2   0.6512
3326    O1  37.5100  41.0800  45.9100 O     1   CO2  -0.3256
3327    O2  37.5000  38.8500  46.4400 O     1   CO2  -0.3256
3328     C  26.0100   7.9100   6.6600 C     1   CO2   0.6512
3329    O1  25.0600   8.5500   6.6000 O     1   CO2  -0.3256
3330    O2  26.9700   7.2900   6.7400 O     1   CO2  -0.3256
3331     C  42.9500  18.7600  58.1800 C     1   CO2   0.6512
3332    O1  43.6300  17.9000  57.8500 O     1   CO2  -0.3256
3333    O2  42.2600  19.6200  58.5100 O     1   CO2  -0.3256
3334     C   4.5900  26.6100  36.2000 C     1   CO2   0.6512
3335    O1   3.4900  26.3600  36.0000 O     1   CO2  -0.3256
3336    O2   5.6900  26.8400  36.4700 O     1   CO2  -0.3256
3337     C   4.2000  28.1200  31.4200 C     1   CO2   0.6512
3338    O1   5.1600  27.8800  32.0000 O     1   CO2  -0.3256
3339    O2   3.2200  28.3600  30.8700 O     1   CO2  -0.3256
3340     C  16.5000  20.5900  17.9500 C     1   CO2   0.6512
3341    O1  16.2200  19.5000  18.1700 O     1   CO2  -0.3256
3342    O2  16.7800  21.6800  17.7400 O     1   CO2  -0.3256
3343     C  10.9000  32.4900  44.4500 C     1   CO2   0.6512
3344    O1  10.7500  31.9500  43.4500 O     1   CO2  -0.3256
3345    O2  11.0700  32.9500  45.4900 O     1   CO2  -0.3256
3346     C  29.9600  17.6800  47.9700 C     1   CO2   0.6512
3347    O1  31.0300  17.3100  48.1500 O     1   CO2  -0.3256
3348    O2  28.8900  18.0600  47.7500 O     1   CO2  -0.3256
3349     C  36.4000  40.5200  49.8400 C     1   CO2   0.6512
3350    O1  36.6700  40.9200  50.8800 O     1   CO2  -0.3256
3351    O2  36.0800  40.1800  48.7900 O     1   CO2  -0.3256
3352     C  19.5800  23.5800  76.6700 C     1   CO2   0.6512
3353    O1  19.9600  22.5000  76.5800 O     1   CO2  -0.3256
3354    O2  19.2400  24.6700  76.8100 O     1   CO2  -0.3256
3355     C  31.6900  23.4200  12.0200 C     1   CO2   0.6512
3356    O1  30.8700  22.7500  12.4700 O     1   CO2  -0.3256
3357    O2  32.5100  24.0500  11.5100 O     1   CO2  -0.3256
3358     C   2.0400  30.7100  24.2300 C     1   CO2   0.6512
3359    O1   1.1400  30.4500  24.8900 O     1   CO2  -0.3256
3360    O2   2.9400  30.9800  23.5600 O     1   CO2  -0.3256
3361     C  29.4400  41.1800  61.9400 C     1   CO2   0.6512
3362    O1  30.3900  41.8300  61.8200 O     1   CO2  -0.3256
3363    O2  28.4800  40.5700  62.1100 O     1   CO2  -0.3256
3364     C  25.1200  22.5500  26.6800 C     1   CO2   0.6512
3365    O1  25.5500  22.2200  27.6900 O     1   CO2  -0.3256
3366    O2  24.7200  22.8900  25.6600 O     1   CO2  -0.3256
3367     C  40.3600  15.7300  55.7600 C     1   CO2   0.6512
3368    O1  40.2300  14.6300  56.0600 O     1   CO2  -0.3256
3369    O2  40.4700  16.8600  55.5700 O     1   CO2  -0.3256
3370     C  35.4500  17.2300  44.3100 C     1   CO2   0.6512
3371    O1  35.6400  16.5600  45.2200 O     1   CO2  -0.3256
3372    O2  35.2800  17.9200  43.4100 O     1   CO2  -0.3256
3373     C  31.3600  40.0700  18.9700 C     1   CO2   0.6512
3374    O1  31.5100  39.4100  18.0500 O     1   CO2  -0.3256
3375    O2  31.1400  40.6800  19.9200 O     1   CO2  -0.3256
3376     C  26.3600  18.3000  15.6000 C     1   CO2   0.6512
3377    O1  25.3600  17.7500  15.4600 O     1   CO2  -0.3256
3378    O2  27.3600  18.8200  15.8000 O     1   CO2  -0.3256
3379     C  40.3900  23.1800  61.3500 C     1   CO2   0.6512
3380    O1  41.2800  23.7600  61.7700 O     1   CO2  -0.3256
3381    O2  39.5300  22.5500  60.9200 O     1   CO2  -0.3256
3382     C   4.1800   8.2100  18.4100 C     1   CO2   0.6512
3383    O1   3.2100   8.4300  19.0000 O     1   CO2  -0.3256
3384    O2   5.1500   8.0100  17.8400 O     1   CO2  -0.3256
3385     C   4.9400  19.3000  36.9200 C     1   CO2   0.6512
3386    O1   5.0300  19.6800  38.0000 O     1   CO2  -0.3256
3387    O2   4.8300  18.9100  35.8400 O     1   CO2  -0.3256
3388     C  10.8400   6.2000  29.4200 C     1   CO2   0.6512
3389    O1  11.1100   7.0400  28.6700 O     1   CO2  -0.3256
3390    O2  10.5400   5.4100  30.1900 O     1   CO2  -0.3256
3391     C   9.5600  27.0200  69.7500 C     1   CO2   0.6512
3392    O1   9.2800  27.7800  70.5600 O     1   CO2  -0.3256
3393    O2   9.8300  26.3000  68.8900 O     1   CO2  -0.3256
3394     C  42.3600  27.9300   6.6500 C     1   CO2   0.6512
3395    O1  41.7400  28.9000   6.6300 O     1   CO2  -0.3256
3396    O2  42.9800  26.9500   6.6800 O     1   CO2  -0.3256
3397     C   3.1900  43.0900  61.3300 C     1   CO2   0.6512
3398    O1   2.4300  42.6700  60.5800 O     1   CO2  -0.3256
3399    O2   3.8600  43.6400  62.0900 O     1   CO2  -0.3256
3400     C   6.0800   0.7400  49.3100 C     1   CO2   0.6512
3401    O1   5.8600   1.5900  48.5800 O     1   CO2  -0.3256
3402    O2   6.3600  -0.1700  49.9600 O     1   CO2  -0.3256
3403     C  16.6100  21.7100  53.2800 C     1   CO2   0.6512
3404    O1  16.9300  22.3600  54.1700 O     1   CO2  -0.3256
3405    O2  16.3200  21.1000  52.3500 O     1   CO2  -0.3256
3406     C  13.5600  41.2000  13.6500 C     1   CO2   0.6512
3407    O1  13.6300  40.0600  13.7900 O     1   CO2  -0.3256
3408    O2  13.5000  42.3400  13.4900 O     1   CO2  -0.3256
3409     C   4.0900  14.0100   6.5200 C     1   CO2   0.6512
3410    O1   3.7800  12.9100   6.4600 O     1   CO2  -0.3256
3411    O2   4.4200  15.1000   6.6600 O     1   CO2  -0.3256
3412     C  15.7900  32.0000  68.8000 C     1   CO2   0.6512
3413    O1  15.0800  31.1300  69.0600 O     1   CO2  -0.3256
3414    O2  16.5100  32.8700  68.6100 O     1   CO2  -0.3256
3415     C  11.0700  19.6000  49.1000 C     1   CO2   0.6512
3416    O1   9.9300  19.5800  49.0400 O     1   CO2  -0.3256
3417    O2  12.2200  19.5800  49.1700 O     1   CO2  -0.3256
3418     C  33.1500  20.1000  37.3500 C     1   CO2   0.6512
3419    O1  34.0800  19.4900  37.6200 O     1   CO2  -0.3256
3420    O2  32.1900  20.7000  37.1200 O     1   CO2  -0.3256
3421     C  38.4400   5.7100  64.2500 C     1   CO2   0.6512
3422    O1  38.7500   4.6600  63.9200 O     1   CO2  -0.3256
3423    O2  38.1300   6.7700  64.5700 O     1   CO2  -0.3256
3424     C  14.1300   5.6200  76.7300 C     1   CO2   0.6512
3425    O1  13.3300   6.4300  76.8800 O     1   CO2  -0.3256
3426    O2  14.9500   4.8200  76.6300 O     1   CO2  -0.3256
3427     C   5.2900  31.1800  61.0500 C     1   CO2   0.6512
3428    O1   4.9700  30.9700  62.1400 O     1   CO2  -0.3256
3429    O2   5.6600  31.2800  59.9700 O     1   CO2  -0.3256
3430     C  26.6800  16.1400  39.5500 C     1   CO2   0.6512
3431    O1  26.7400  16.6500  40.5700 O     1   CO2  -0.3256
3432    O2  26.6300  15.6000  38.5400 O     1   CO2  -0.3256
3433     C   4.6000  24.2600  32.6200 C     1   CO2   0.6512
3434    O1   3.6800  23.7000  33.0100 O     1   CO2  -0.3256
3435    O2   5.5300  24.8300  32.2400 O     1   CO2  -0.3256
3436     C   9.1000  42.1200  23.3300 C     1   CO2   0.6512
3437    O1   8.3000  42.2500  22.5100 O     1   CO2  -0.3256
3438    O2   9.9000  41.9700  24.1400 O     1   CO2  -0.3256
3439    OW   1.7800  12.4700  11.2000 O     1   SOL  -0.8340
3440   HW1   1.3000  12.6500  12.0100 H     1   SOL   0.4170
3441   HW2   1.3500  11.6900  10.8500 H     1   SOL   0.4170
3442    OW  42.6200   3.8000   9.0100 O     1   SOL  -0.8340
3443   HW1  42.3100   4.7100   9.1100 H     1   SOL   0.4170
3444   HW2  43.0200   3.7800   8.1400 H     1   SOL   0.4170
3445    OW  35.1100  20.7400  16.1300 O     1   SOL  -0.8340
3446   HW1  34.8000  19.9300  15.7300 H     1   SOL   0.4170
3447   HW2  35.9300  20.9300  15.6900 H     1   SOL   0.4170
3448    OW  32.5800   8.6000  19.3700 O     1   SOL  -0.8340
3449   HW1  32.8900   9.4500  19.0600 H     1   SOL   0.4170
3450   HW2  31.9100   8.8100  20.0300 H     1   SOL   0.4170
3451    OW   9.0900  14.4500  12.5700 O     1   SOL  -0.8340
3452   HW1   8.2300  14.3500  12.1600 H     1   SOL   0.4170
3453   HW2   8.9600  14.1600  13.4800 H     1   SOL   0.4170
3454    OW  20.6200  29.4800   9.2300 O     1   SOL  -0.8340
3455   HW1  21.1200  30.0100   8.6100 H     1   SOL   0.4170
3456   HW2  21.2400  28.8100   9.5200 H     1   SOL   0.4170
3457    OW  42.1900  15.7600  13.1000 O     1   SOL  -0.8340
3458   HW1  41.3900  15.3300  12.7900 H     1   SOL   0.4170
3459   HW2  41.9400  16.1400  13.9400 H     1   SOL   0.4170
3460    OW  16.1200   7.5700  13.2700 O     1   SOL  -0.8340
3461   HW1  15.3200   7.1200  13.0000 H     1   SOL   0.4170
3462   HW2  16.8000   6.8900  13.2000 H     1   SOL   0.4170
3463    OW  18.4300  25.1700  18.0500 O     1   SOL  -0.8340
3464   HW1  18.6500  25.6200  18.8600 H     1   SOL   0.4170
3465   HW2  18.6700  24.2600  18.2000 H     1   SOL   0.4170
3466    OW   0.5400  19.0900   7.6100 O     1   SOL  -0.8340
3467   HW1   0.8000  18.8400   8.4900 H     1   SOL   0.4170
3468   HW2   0.6000  18.2800   7.1000 H     1   SOL   0.4170
3469    OW  41.7000  14.3200   6.6600 O     1   SOL  -0.8340
3470   HW1  40.7500  14.3900   6.7800 H     1   SOL   0.4170
3471   HW2  41.8200  13.4900   6.2000 H     1   SOL   0.4170
3472    OW   7.5500  17.7900  12.4200 O     1   SOL  -0.8340
3473   HW1   8.2100  17.6300  13.1000 H     1   SOL   0.4170
3474   HW2   6.7800  17.3100  12.7100 H     1   SOL   0.4170
3475    OW   1.6200   6.9300   6.3300 O     1   SOL  -0.8340
3476   HW1   1.5500   7.6900   5.7400 H     1   SOL   0.4170
3477   HW2   2.1500   7.2500   7.0600 H     1   SOL   0.4170
3478    OW  10.8600  13.2800   6.8900 O     1   SOL  -0.8340
3479   HW1  10.0100  13.1500   7.3100 H     1   SOL   0.4170
3480   HW2  10.9500  14.2300   6.8300 H     1   SOL   0.4170
3481    OW   3.9700  41.3200  24.6600 O     1   SOL  -0.8340
3482   HW1   3.7500  40.7300  25.3800 H     1   SOL   0.4170
3483   HW2   3.6400  42.1700  24.9400 H     1   SOL   0.4170
3484    OW   0.5400  12.3700  13.6400 O     1   SOL  -0.8340
3485   HW1   0.1500  11.5500  13.9600 H     1   SOL   0.4170
3486   HW2   0.2800  13.0300  14.2900 H     1   SOL   0.4170
3487    OW  20.3400  11.4800  32.4200 O     1   SOL  -0.8340
3488   HW1  20.8500  10.8000  31.9700 H     1   SOL   0.4170
3489   HW2  20.4600  11.2900  33.3500 H     1   SOL   0.4170
3490    OW  13.6000  24.9700  18.1900 O     1   SOL  -0.8340
3491   HW1  13.8300  25.8000  17.7700 H     1   SOL   0.4170
3492   HW2  13.4700  24.3700  17.4600 H     1   SOL   0.4170
3493    OW   4.3600  37.5300  10.2500 O     1   SOL  -0.8340
3494   HW1   5.0400  38.0500   9.8300 H     1   SOL   0.4170
3495   HW2   4.1100  38.0400  11.0200 H     1   SOL   0.4170
3496    OW  18.8900  12.5500  21.5200 O     1   SOL  -0.8340
3497   HW1  18.4000  12.7500  22.3200 H     1   SOL   0.4170
3498   HW2  18.2200  12.2700  20.9000 H     1   SOL   0.4170
3499    OW   0.7200   8.3400  10.6500 O     1   SOL  -0.8340
3500   HW1  -0.0500   8.1000  11.1600 H     1   SOL   0.4170
3501   HW2   0.9300   7.5600  10.1400 H     1   SOL   0.4170
3502    OW  40.7500  15.6500  17.6400 O     1   SOL  -0.8340
3503   HW1  40.2300  15.0900  17.0700 H     1   SOL   0.4170
3504   HW2  41.1700  16.2700  17.0500 H     1   SOL   0.4170
3505    OW   5.8000  31.9300  16.6100 O     1   SOL  -0.8340
3506   HW1   5.2400  31.8300  17.3900 H     1   SOL   0.4170
3507   HW2   5.9700  31.0300  16.3200 H     1   SOL   0.4170
3508    OW  41.3800  28.9500  16.0900 O     1   SOL  -0.8340
3509   HW1  42.2200  28.6900  15.7100 H     1   SOL   0.4170
3510   HW2  41.5000  28.8300  17.0300 H     1   SOL   0.4170
3511    OW   6.9500  14.1300  10.7800 O     1   SOL  -0.8340
3512   HW1   6.1800  13.5600  10.7400 H     1   SOL   0.4170
3513   HW2   7.3300  14.0700   9.9000 H     1   SOL   0.4170
3514    OW  15.1200  39.4000  19.2000 O     1   SOL  -0.8340
3515   HW1  14.7500  39.2100  20.0600 H     1   SOL   0.4170
3516   HW2  15.3300  40.3300  19.2300 H     1   SOL   0.4170
3517    OW  13.1100   3.0000  19.1900 O     1   SOL  -0.8340
3518   HW1  13.1900   3.5000  18.3800 H     1   SOL   0.4170
3519   HW2  14.0200   2.7900  19.4300 H     1   SOL   0.4170
3520    OW   1.7200  21.6800   6.4100 O     1   SOL  -0.8340
3521   HW1   2.5100  22.2200   6.3900 H     1   SOL   0.4170
3522   HW2   2.0000  20.8400   6.7600 H     1   SOL   0.4170
3523    OW  28.2300   6.5600  13.7400 O     1   SOL  -0.8340
3524   HW1  27.9400   5.6600  13.5600 H     1   SOL   0.4170
3525   HW2  27.4300   7.0800  13.7000 H     1   SOL   0.4170
3526    OW  17.7400   9.2300   6.8000 O     1   SOL  -0.8340
3527   HW1  17.6500   8.6200   7.5300 H     1   SOL   0.4170
3528   HW2  16.9500   9.7700   6.8500 H     1   SOL   0.4170
3529    OW   1.8100  22.0700  12.6700 O     1   SOL  -0.8340
3530   HW1   1.9100  22.8800  12.1600 H     1   SOL   0.4170
3531   HW2   2.5200  21.5100  12.3700 H     1   SOL   0.4170
3532    OW   1.7800  38.7700  18.7300 O     1   SOL  -0.8340
3533   HW1   1.2200  38.6000  17.9700 H     1   SOL   0.4170
3534   HW2   2.6100  38.3500  18.5100 H     1   SOL   0.4170
3535    OW  41.1200   7.9300  14.9400 O     1   SOL  -0.8340
3536   HW1  41.0100   6.9800  14.8600 H     1   SOL   0.4170
3537   HW2  40.2300   8.2700  14.9500 H     1   SOL   0.4170
3538    OW   8.3600   7.8900  17.4800 O     1   SOL  -0.8340
3539   HW1   8.8300   7.0900  17.2600 H     1   SOL   0.4170
3540   HW2   7.4500   7.6200  17.5700 H     1   SOL   0.4170
3541    OW   4.4100  31.5000  14.2100 O     1   SOL  -0.8340
3542   HW1   4.5600  31.9500  15.0400 H     1   SOL   0.4170
3543   HW2   3.8800  32.1100  13.6900 H     1   SOL   0.4170
3544    OW   3.5800  20.3500  11.7200 O     1   SOL  -0.8340
3545   HW1   4.5100  20.2500  11.5500 H     1   SOL   0.4170
3546   HW2   3.2000  19.5100  11.5000 H     1   SOL   0.4170
3547    OW   8.3400   0.8300  11.8900 O     1   SOL  -0.8340
3548   HW1   9.2400   0.9800  12.2100 H     1   SOL   0.4170
3549   HW2   7.8000   1.4200  12.4100 H     1   SOL   0.4170
3550    OW  13.8200   5.6700  11.7600 O     1   SOL  -0.8340
3551   HW1  13.2400   5.0100  12.1400 H     1   SOL   0.4170
3552   HW2  13.3400   6.5000  11.8600 H     1   SOL   0.4170
3553    OW  10.7700  16.1200   6.5900 O     1   SOL  -0.8340
3554   HW1  10.9600  16.2800   5.6700 H     1   SOL   0.4170
3555   HW2   9.9600  16.5900   6.7600 H     1   SOL   0.4170
3556    OW  41.1600  11.5900   6.9500 O     1   SOL  -0.8340
3557   HW1  41.7000  11.1800   7.6300 H     1   SOL   0.4170
3558   HW2  40.2800  11.2300   7.1000 H     1   SOL   0.4170
3559    OW   9.9700  20.7600   6.8300 O     1   SOL  -0.8340
3560   HW1  10.2900  21.2700   7.5700 H     1   SOL   0.4170
3561   HW2   9.0900  21.0900   6.6700 H     1   SOL   0.4170
3562    OW   0.3400  16.0800   6.6500 O     1   SOL  -0.8340
3563   HW1   0.9500  15.6400   7.2500 H     1   SOL   0.4170
3564   HW2  -0.3900  15.4500   6.5500 H     1   SOL   0.4170
3565    OW  35.1500  20.7300  12.4000 O     1   SOL  -0.8340
3566   HW1  34.4000  20.3700  12.8800 H     1   SOL   0.4170
3567   HW2  35.2300  21.6300  12.7200 H     1   SOL   0.4170
3568    OW  15.2300  40.9900   6.9200 O     1   SOL  -0.8340
3569   HW1  14.4600  41.4400   6.5800 H     1   SOL   0.4170
3570   HW2  15.8800  41.6800   7.0600 H     1   SOL   0.4170
3571    OW   5.4400   4.6400  24.9400 O     1   SOL  -0.8340
3572   HW1   5.2800   4.4200  25.8600 H     1   SOL   0.4170
3573   HW2   6.3800   4.8000  24.8900 H     1   SOL   0.4170
3574    OW  28.4200   9.5900  12.8600 O     1   SOL  -0.8340
3575   HW1  29.3700   9.7300  12.8000 H     1   SOL   0.4170
3576   HW2  28.2900   8.7000  12.5200 H     1   SOL   0.4170
3577    OW  21.2400  19.3800  13.8200 O     1   SOL  -0.8340
3578   HW1  21.6400  18.9900  13.0400 H     1   SOL   0.4170
3579   HW2  20.6700  18.6900  14.1600 H     1   SOL   0.4170
3580    OW  14.6300  16.6900  29.3700 O     1   SOL  -0.8340
3581   HW1  14.6900  16.8700  30.3100 H     1   SOL   0.4170
3582   HW2  13.8200  17.1200  29.0900 H     1   SOL   0.4170
3583    OW  11.7700   6.0900  15.0900 O     1   SOL  -0.8340
3584   HW1  11.6400   6.3600  16.0000 H     1   SOL   0.4170
3585   HW2  12.1800   5.2300  15.1500 H     1   SOL   0.4170
3586    OW   0.9300  19.0000  15.4200 O     1   SOL  -0.8340
3587   HW1   1.8100  18.7200  15.1800 H     1   SOL   0.4170
3588   HW2   1.0600  19.6600  16.1000 H     1   SOL   0.4170
3589    OW  36.8100  42.0400  22.9900 O     1   SOL  -0.8340
3590   HW1  37.1400  41.4000  22.3600 H     1   SOL   0.4170
3591   HW2  37.5700  42.5800  23.2000 H     1   SOL   0.4170
3592    OW  42.0800  20.4800  14.3100 O     1   SOL  -0.8340
3593   HW1  42.7000  19.8600  14.6900 H     1   SOL   0.4170
3594   HW2  42.4300  20.6700  13.4400 H     1   SOL   0.4170
3595    OW   3.2800   1.2500  30.4700 O     1   SOL  -0.8340
3596   HW1   2.3600   1.3700  30.2600 H     1   SOL   0.4170
3597   HW2   3.3800   1.6200  31.3500 H     1   SOL   0.4170
3598    OW   3.3700  17.5400  11.6500 O     1   SOL  -0.8340
3599   HW1   3.6900  16.6500  11.8000 H     1   SOL   0.4170
3600   HW2   2.8400  17.4700  10.8600 H     1   SOL   0.4170
3601    OW   3.6400   4.7500  18.1400 O     1   SOL  -0.8340
3602   HW1   3.3600   5.5400  17.6800 H     1   SOL   0.4170
3603   HW2   3.6800   5.0100  19.0600 H     1   SOL   0.4170
3604    OW  34.6900   3.5800   6.6800 O     1   SOL  -0.8340
3605   HW1  34.8200   2.8200   6.1100 H     1   SOL   0.4170
3606   HW2  35.5600   3.9400   6.8100 H     1   SOL   0.4170
3607    OW  10.5400   0.9100  26.9700 O     1   SOL  -0.8340
3608   HW1  10.7300   1.3900  27.7700 H     1   SOL   0.4170
3609   HW2   9.6100   0.7000  27.0300 H     1   SOL   0.4170
3610    OW   1.8200  41.8700  22.6200 O     1   SOL  -0.8340
3611   HW1   0.9900  41.8100  23.1100 H     1   SOL   0.4170
3612   HW2   2.2200  41.0100  22.7200 H     1   SOL   0.4170
3613    OW  33.6600  37.9700  10.5500 O     1   SOL  -0.8340
3614   HW1  33.9900  38.4700   9.8000 H     1   SOL   0.4170
3615   HW2  32.7500  38.2600  10.6500 H     1   SOL   0.4170
3616    OW  35.0200  31.8400  19.4100 O     1   SOL  -0.8340
3617   HW1  34.8700  30.9500  19.0900 H     1   SOL   0.4170
3618   HW2  35.4000  31.7200  20.2800 H     1   SOL   0.4170
3619    OW  14.7100  23.3800  19.9900 O     1   SOL  -0.8340
3620   HW1  14.3900  23.8300  19.2000 H     1   SOL   0.4170
3621   HW2  14.7300  24.0600  20.6600 H     1   SOL   0.4170
3622    OW  24.9700  13.1800  10.1000 O     1   SOL  -0.8340
3623   HW1  25.4100  12.7000  10.8000 H     1   SOL   0.4170
3624   HW2  25.6900  13.5200   9.5600 H     1   SOL   0.4170
3625    OW   5.3800  43.0800   6.6600 O     1   SOL  -0.8340
3626   HW1   4.6200  43.3000   6.1200 H     1   SOL   0.4170
3627   HW2   5.4200  42.1300   6.6500 H     1   SOL   0.4170
3628    OW  17.9600  13.3300   8.7600 O     1   SOL  -0.8340
3629   HW1  17.8100  14.0200   9.3900 H     1   SOL   0.4170
3630   HW2  17.3200  13.5000   8.0600 H     1   SOL   0.4170
3631    OW  16.0900  36.6000  19.1200 O     1   SOL  -0.8340
3632   HW1  15.5500  37.3400  18.8500 H     1   SOL   0.4170
3633   HW2  15.4700  35.8800  19.2500 H     1   SOL   0.4170
3634    OW  29.6900  42.3900  17.1400 O     1   SOL  -0.8340
3635   HW1  29.0700  41.7100  17.4200 H     1   SOL   0.4170
3636   HW2  29.1700  43.2000  17.1400 H     1   SOL   0.4170
3637    OW   8.7500   9.3700  15.0800 O     1   SOL  -0.8340
3638   HW1   8.8100   8.8600  15.8900 H     1   SOL   0.4170
3639   HW2   9.0900   8.7900  14.4000 H     1   SOL   0.4170
3640    OW   3.0900  21.4400  19.1500 O     1   SOL  -0.8340
3641   HW1   3.0700  20.6100  18.6700 H     1   SOL   0.4170
3642   HW2   3.3900  22.0800  18.5100 H     1   SOL   0.4170
3643    OW   9.5900  24.2800  17.8300 O     1   SOL  -0.8340
3644   HW1   9.8800  23.4200  17.5300 H     1   SOL   0.4170
3645   HW2   8.7400  24.1300  18.2400 H     1   SOL   0.4170
3646    OW  42.8500  14.1900  15.9400 O     1   SOL  -0.8340
3647   HW1  43.6900  14.5500  15.6700 H     1   SOL   0.4170
3648   HW2  42.2300  14.9000  15.7900 H     1   SOL   0.4170
3649    OW   2.1300  34.3600   8.7200 O     1   SOL  -0.8340
3650   HW1   2.8900  34.6700   9.2300 H     1   SOL   0.4170
3651   HW2   1.3900  34.4500   9.3300 H     1   SOL   0.4170
3652    OW   5.4200  35.4500  12.9000 O     1   SOL  -0.8340
3653   HW1   6.0800  35.8500  12.3400 H     1   SOL   0.4170
3654   HW2   5.5700  35.8300  13.7600 H     1   SOL   0.4170
3655    OW  41.0700  17.4000   6.8400 O     1   SOL  -0.8340
3656   HW1  41.8300  17.4500   6.2600 H     1   SOL   0.4170
3657   HW2  40.9500  16.4700   7.0000 H     1   SOL   0.4170
3658    OW   6.1400  20.1300  10.6600 O     1   SOL  -0.8340
3659   HW1   6.8100  19.8300  11.2800 H     1   SOL   0.4170
3660   HW2   6.4300  19.7900   9.8100 H     1   SOL   0.4170
3661    OW  31.7400  13.3800  16.5400 O     1   SOL  -0.8340
3662   HW1  31.6200  13.5900  17.4700 H     1   SOL   0.4170
3663   HW2  32.3700  14.0300  16.2300 H     1   SOL   0.4170
3664    OW  35.7800   8.1600  16.2900 O     1   SOL  -0.8340
3665   HW1  35.7600   7.9500  17.2200 H     1   SOL   0.4170
3666   HW2  35.5500   7.3300  15.8600 H     1   SOL   0.4170
3667    OW  12.2300   0.3700  18.6800 O     1   SOL  -0.8340
3668   HW1  12.3500   1.1700  19.2000 H     1   SOL   0.4170
3669   HW2  11.8400  -0.2500  19.3000 H     1   SOL   0.4170
3670    OW  33.3000   3.1500  27.6600 O     1   SOL  -0.8340
3671   HW1  32.8700   3.7900  27.0900 H     1   SOL   0.4170
3672   HW2  33.3300   2.3500  27.1300 H     1   SOL   0.4170
3673    OW  39.1500  15.7400  20.2300 O     1   SOL  -0.8340
3674   HW1  38.8900  16.6300  19.9900 H     1   SOL   0.4170
3675   HW2  39.7500  15.4700  19.5300 H     1   SOL   0.4170
3676    OW  10.1500  41.9900  15.1500 O     1   SOL  -0.8340
3677   HW1  10.2000  42.1300  14.2100 H     1   SOL   0.4170
3678   HW2   9.2200  41.8500  15.3300 H     1   SOL   0.4170
3679    OW   3.6100  14.9400  15.8900 O     1   SOL  -0.8340
3680   HW1   3.3600  14.8100  16.8000 H     1   SOL   0.4170
3681   HW2   2.7700  15.0000  15.4200 H     1   SOL   0.4170
3682    OW  12.1100  22.2500  14.0700 O     1   SOL  -0.8340
3683   HW1  12.3500  23.1400  13.7800 H     1   SOL   0.4170
3684   HW2  11.1900  22.1700  13.8300 H     1   SOL   0.4170
3685    OW  32.8000   6.1000   9.5200 O     1   SOL  -0.8340
3686   HW1  32.6900   5.8000   8.6200 H     1   SOL   0.4170
3687   HW2  33.1400   5.3300   9.9900 H     1   SOL   0.4170
3688    OW   3.8200  13.8900  12.3100 O     1   SOL  -0.8340
3689   HW1   3.2300  13.2800  11.8600 H     1   SOL   0.4170
3690   HW2   4.1200  13.4000  13.0700 H     1   SOL   0.4170
3691    OW  14.7200  10.6300  21.2800 O     1   SOL  -0.8340
3692   HW1  15.3400  11.3500  21.3600 H     1   SOL   0.4170
3693   HW2  13.9000  11.0400  20.9900 H     1   SOL   0.4170
3694    OW  16.0100   2.4100  16.1200 O     1   SOL  -0.8340
3695   HW1  16.8800   2.8000  16.0500 H     1   SOL   0.4170
3696   HW2  15.7800   2.1800  15.2200 H     1   SOL   0.4170
3697    OW  14.0700   5.5900   6.9700 O     1   SOL  -0.8340
3698   HW1  14.1300   5.5600   7.9300 H     1   SOL   0.4170
3699   HW2  14.2300   6.5100   6.7500 H     1   SOL   0.4170
3700    OW   2.1100  43.1100   6.6800 O     1   SOL  -0.8340
3701   HW1   1.7300  43.9600   6.4800 H     1   SOL   0.4170
3702   HW2   1.3800  42.4900   6.5800 H     1   SOL   0.4170
3703    OW   8.6900   2.3700  21.8200 O     1   SOL  -0.8340
3704   HW1   9.3700   1.7200  22.0100 H     1   SOL   0.4170
3705   HW2   8.1100   2.3400  22.5800 H     1   SOL   0.4170
3706    OW  42.1700  15.1600  28.7100 O     1   SOL  -0.8340
3707   HW1  42.3600  16.0600  28.9800 H     1   SOL   0.4170
3708   HW2  41.3800  15.2300  28.1700 H     1   SOL   0.4170
3709    OW   8.7600  14.3100   8.3500 O     1   SOL  -0.8340
3710   HW1   8.3700  14.7500   7.6000 H     1   SOL   0.4170
3711   HW2   9.1600  15.0100   8.8600 H     1   SOL   0.4170
3712    OW  15.0300  35.4200  15.5100 O     1   SOL  -0.8340
3713   HW1  14.2000  35.9000  15.4700 H     1   SOL   0.4170
3714   HW2  14.9300  34.7200  14.8700 H     1   SOL   0.4170
3715    OW  16.1100   3.9800   6.6400 O     1   SOL  -0.8340
3716   HW1  15.6100   3.2700   7.0500 H     1   SOL   0.4170
3717   HW2  15.4600   4.6500   6.4400 H     1   SOL   0.4170
3718    OW   3.5200  18.3100  15.0100 O     1   SOL  -0.8340
3719   HW1   4.4000  18.4300  15.3500 H     1   SOL   0.4170
3720   HW2   3.6500  17.9600  14.1300 H     1   SOL   0.4170
3721    OW  23.8600  13.6400  15.1900 O     1   SOL  -0.8340
3722   HW1  23.0500  13.1900  14.9700 H     1   SOL   0.4170
3723   HW2  24.0800  14.1500  14.4100 H     1   SOL   0.4170
3724    OW   0.8200  34.6100  11.2400 O     1   SOL  -0.8340
3725   HW1   1.4800  35.0800  11.7500 H     1   SOL   0.4170
3726   HW2   0.7600  33.7500  11.6600 H     1   SOL   0.4170
3727    OW   7.1400  15.9300   6.7700 O     1   SOL  -0.8340
3728   HW1   7.7200  16.6400   6.4800 H     1   SOL   0.4170
3729   HW2   6.2700  16.3300   6.7700 H     1   SOL   0.4170
3730    OW  26.7000  34.0800  30.6900 O     1   SOL  -0.8340
3731   HW1  27.3400  34.0800  29.9800 H     1   SOL   0.4170
3732   HW2  26.3300  33.2000  30.6800 H     1   SOL   0.4170
3733    OW  25.9100  11.9600  26.1000 O     1   SOL  -0.8340
3734   HW1  26.1600  12.7500  25.6100 H     1   SOL   0.4170
3735   HW2  26.7300  11.6300  26.4600 H     1   SOL   0.4170
3736    OW  18.1700  28.9100  10.7000 O     1   SOL  -0.8340
3737   HW1  18.7000  29.3300  10.0200 H     1   SOL   0.4170
3738   HW2  18.7900  28.3400  11.1600 H     1   SOL   0.4170
3739    OW   5.8800   8.2900  21.2700 O     1   SOL  -0.8340
3740   HW1   5.4400   9.1100  21.0200 H     1   SOL   0.4170
3741   HW2   6.8100   8.5000  21.2400 H     1   SOL   0.4170
3742    OW  36.5000   5.8200   9.6500 O     1   SOL  -0.8340
3743   HW1  35.6400   5.6500   9.2600 H     1   SOL   0.4170
3744   HW2  36.7700   6.6600   9.2700 H     1   SOL   0.4170
3745    OW   5.5500  14.1200  18.9100 O     1   SOL  -0.8340
3746   HW1   5.5600  13.9900  19.8600 H     1   SOL   0.4170
3747   HW2   6.4200  14.4600  18.7100 H     1   SOL   0.4170
3748    OW  34.3800   5.7900  15.1600 O     1   SOL  -0.8340
3749   HW1  34.0900   5.4300  15.9900 H     1   SOL   0.4170
3750   HW2  34.0300   5.1900  14.5000 H     1   SOL   0.4170
3751    OW  38.3000   8.8700  15.0000 O     1   SOL  -0.8340
3752   HW1  37.5100   8.5600  15.4500 H     1   SOL   0.4170
3753   HW2  38.2400   8.4800  14.1300 H     1   SOL   0.4170
3754    OW   6.0400  13.6500  21.6100 O     1   SOL  -0.8340
3755   HW1   6.1100  12.7500  21.9300 H     1   SOL   0.4170
3756   HW2   6.9300  13.9800  21.6300 H     1   SOL   0.4170
3757    OW  42.7300  41.7100  11.1600 O     1   SOL  -0.8340
3758   HW1  42.4600  42.5900  10.9100 H     1   SOL   0.4170
3759   HW2  42.7900  41.7400  12.1100 H     1   SOL   0.4170
3760    OW  29.3000   4.3100  17.9900 O     1   SOL  -0.8340
3761   HW1  29.7500   3.8300  18.6900 H     1   SOL   0.4170
3762   HW2  29.1400   5.1800  18.3500 H     1   SOL   0.4170
3763    OW  25.2700  32.7100  17.8000 O     1   SOL  -0.8340
3764   HW1  26.1900  32.4500  17.9000 H     1   SOL   0.4170
3765   HW2  25.3100  33.5800  17.4100 H     1   SOL   0.4170
3766    OW  28.4400  34.6900  21.9400 O     1   SOL  -0.8340
3767   HW1  29.0100  34.7300  22.7100 H     1   SOL   0.4170
3768   HW2  27.8800  35.4600  22.0200 H     1   SOL   0.4170
3769    OW  41.6400   8.2300  31.4500 O     1   SOL  -0.8340
3770   HW1  42.2100   8.2500  30.6800 H     1   SOL   0.4170
3771   HW2  42.1200   7.7100  32.0900 H     1   SOL   0.4170
3772    OW  31.6500   9.4900  39.3200 O     1   SOL  -0.8340
3773   HW1  31.1400  10.1500  38.8300 H     1   SOL   0.4170
3774   HW2  31.0100   8.8300  39.5600 H     1   SOL   0.4170
3775    OW  16.1700  13.6700  23.9000 O     1   SOL  -0.8340
3776   HW1  15.6300  13.6600  23.1200 H     1   SOL   0.4170
3777   HW2  16.2900  14.6000  24.1000 H     1   SOL   0.4170
3778    OW  15.4500  24.5600  15.0300 O     1   SOL  -0.8340
3779   HW1  15.4500  23.9900  15.8000 H     1   SOL   0.4170
3780   HW2  16.2900  25.0200  15.0800 H     1   SOL   0.4170
3781    OW  26.7000  10.4200  19.4600 O     1   SOL  -0.8340
3782   HW1  27.0700  10.3400  18.5800 H     1   SOL   0.4170
3783   HW2  25.7700  10.2300  19.3500 H     1   SOL   0.4170
3784    OW   6.0800  15.3300  24.5200 O     1   SOL  -0.8340
3785   HW1   6.2100  15.0200  23.6200 H     1   SOL   0.4170
3786   HW2   5.2300  14.9600  24.7800 H     1   SOL   0.4170
3787    OW  39.8400   5.7100  32.5800 O     1   SOL  -0.8340
3788   HW1  40.7700   5.6800  32.8000 H     1   SOL   0.4170
3789   HW2  39.6400   4.8100  32.3000 H     1   SOL   0.4170
3790    OW   7.9400  10.1100  42.0500 O     1   SOL  -0.8340
3791   HW1   7.0200   9.8700  42.2100 H     1   SOL   0.4170
3792   HW2   8.4300   9.6300  42.7100 H     1   SOL   0.4170
3793    OW   5.5100  16.1200  43.1600 O     1   SOL  -0.8340
3794   HW1   5.3700  17.0400  42.9300 H     1   SOL   0.4170
3795   HW2   6.2800  15.8700  42.6600 H     1   SOL   0.4170
3796    OW  13.3500  17.0200  26.2800 O     1   SOL  -0.8340
3797   HW1  14.0500  17.6700  26.3600 H     1   SOL   0.4170
3798   HW2  12.8500  17.1000  27.1000 H     1   SOL   0.4170
3799    OW   2.2400   2.9300  43.8700 O     1   SOL  -0.8340
3800   HW1   2.7300   3.6200  44.3300 H     1   SOL   0.4170
3801   HW2   2.0200   2.3100  44.5600 H     1   SOL   0.4170
3802    OW  14.9100  25.7900  31.3400 O     1   SOL  -0.8340
3803   HW1  14.1300  25.3500  31.7000 H     1   SOL   0.4170
3804   HW2  15.5700  25.1000  31.2900 H     1   SOL   0.4170
3805    OW   1.9500  20.7100  44.5100 O     1   SOL  -0.8340
3806   HW1   2.5800  20.9100  43.8200 H     1   SOL   0.4170
3807   HW2   2.3500  21.0500  45.3100 H     1   SOL   0.4170
3808    OW  37.0300  13.5000  10.0600 O     1   SOL  -0.8340
3809   HW1  36.9600  14.2600   9.4700 H     1   SOL   0.4170
3810   HW2  37.2800  13.8700  10.9000 H     1   SOL   0.4170
3811    OW  19.5600  32.5300  38.8700 O     1   SOL  -0.8340
3812   HW1  19.8400  33.4300  38.6800 H     1   SOL   0.4170
3813   HW2  20.0100  32.0000  38.2000 H     1   SOL   0.4170
3814    OW   4.0600  29.6400  12.3000 O     1   SOL  -0.8340
3815   HW1   4.1300  30.3700  12.9200 H     1   SOL   0.4170
3816   HW2   4.3600  29.9900  11.4700 H     1   SOL   0.4170
3817    OW  16.0100   8.1800  34.8500 O     1   SOL  -0.8340
3818   HW1  15.8500   7.2400  34.8500 H     1   SOL   0.4170
3819   HW2  16.5200   8.3500  35.6400 H     1   SOL   0.4170
3820    OW  30.8800  13.5200  29.2700 O     1   SOL  -0.8340
3821   HW1  30.8200  12.5900  29.0700 H     1   SOL   0.4170
3822   HW2  29.9700  13.7900  29.4100 H     1   SOL   0.4170
3823    OW   3.8300  23.2900  17.0000 O     1   SOL  -0.8340
3824   HW1   4.2500  22.7500  16.3200 H     1   SOL   0.4170
3825   HW2   2.9600  23.4800  16.6500 H     1   SOL   0.4170
3826    OW   6.8400  12.3000  28.8300 O     1   SOL  -0.8340
3827   HW1   6.4900  13.1900  28.7300 H     1   SOL   0.4170
3828   HW2   6.3300  11.7700  28.2300 H     1   SOL   0.4170
3829    OW   9.5700   7.9700  37.8600 O     1   SOL  -0.8340
3830   HW1   8.7500   7.4700  37.7800 H     1   SOL   0.4170
3831   HW2   9.8600   7.8000  38.7600 H     1   SOL   0.4170
3832    OW   8.2000   4.6400  24.3000 O     1   SOL  -0.8340
3833   HW1   9.0500   4.9500  23.9900 H     1   SOL   0.4170
3834   HW2   8.2300   3.6900  24.1900 H     1   SOL   0.4170
3835    OW  38.1700  40.7500  26.9500 O     1   SOL  -0.8340
3836   HW1  38.2800  41.2600  27.7500 H     1   SOL   0.4170
3837   HW2  37.3100  41.0100  26.6200 H     1   SOL   0.4170
3838    OW   4.2300  13.7600  40.6900 O     1   SOL  -0.8340
3839   HW1   3.7700  14.5000  41.1000 H     1   SOL   0.4170
3840   HW2   5.0800  14.1100  40.4600 H     1   SOL   0.4170
3841    OW  42.1600   1.6900  10.5800 O     1   SOL  -0.8340
3842   HW1  42.5100   2.5600  10.3800 H     1   SOL   0.4170
3843   HW2  42.1300   1.2400   9.7400 H     1   SOL   0.4170
3844    OW   9.3800  21.9400  25.9600 O     1   SOL  -0.8340
3845   HW1   8.5500  21.4600  26.0200 H     1   SOL   0.4170
3846   HW2   9.7000  21.7400  25.0800 H     1   SOL   0.4170
3847    OW  36.8400  33.2000  51.7400 O     1   SOL  -0.8340
3848   HW1  36.3500  33.6600  51.0600 H     1   SOL   0.4170
3849   HW2  37.6600  33.6800  51.8300 H     1   SOL   0.4170
3850    OW   2.6100  14.6500  33.0700 O     1   SOL  -0.8340
3851   HW1   2.6900  15.5900  32.9100 H     1   SOL   0.4170
3852   HW2   1.8800  14.5700  33.6800 H     1   SOL   0.4170
3853    OW   8.5800   8.5300  20.0700 O     1   SOL  -0.8340
3854   HW1   8.8100   7.6700  20.4300 H     1   SOL   0.4170
3855   HW2   8.6400   8.4200  19.1200 H     1   SOL   0.4170
3856    OW  19.4600  17.6200  15.0700 O     1   SOL  -0.8340
3857   HW1  18.5500  17.6000  14.7600 H     1   SOL   0.4170
3858   HW2  19.6200  16.7400  15.4100 H     1   SOL   0.4170
3859    OW   1.9200  33.4500  18.7400 O     1   SOL  -0.8340
3860   HW1   1.3700  33.2600  17.9800 H     1   SOL   0.4170
3861   HW2   1.3800  34.0100  19.2900 H     1   SOL   0.4170
3862    OW   7.5400  21.2300  36.0400 O     1   SOL  -0.8340
3863   HW1   8.1100  21.5700  35.3600 H     1   SOL   0.4170
3864   HW2   8.0800  20.6000  36.5200 H     1   SOL   0.4170
3865    OW  10.2900   6.6800  11.2200 O     1   SOL  -0.8340
3866   HW1  10.8800   7.0700  10.5700 H     1   SOL   0.4170
3867   HW2  10.2400   5.7600  10.9700 H     1   SOL   0.4170
3868    OW  36.4000   1.5700  28.5100 O     1   SOL  -0.8340
3869   HW1  36.4700   1.1300  29.3600 H     1   SOL   0.4170
3870   HW2  37.3000   1.8100  28.2900 H     1   SOL   0.4170
3871    OW   4.3200  11.8800  49.4100 O     1   SOL  -0.8340
3872   HW1   3.8400  12.4000  48.7600 H     1   SOL   0.4170
3873   HW2   3.9400  12.1400  50.2500 H     1   SOL   0.4170
3874    OW  18.8000  11.6900  37.9400 O     1   SOL  -0.8340
3875   HW1  19.2900  11.6000  38.7600 H     1   SOL   0.4170
3876   HW2  17.9800  11.2300  38.1100 H     1   SOL   0.4170
3877    OW  13.6200   2.8800  22.3200 O     1   SOL  -0.8340
3878   HW1  14.1900   3.5100  21.8700 H     1   SOL   0.4170
3879   HW2  14.2200   2.2100  22.6500 H     1   SOL   0.4170
3880    OW   4.9800  39.6700  41.7600 O     1   SOL  -0.8340
3881   HW1   5.5500  39.0700  41.2800 H     1   SOL   0.4170
3882   HW2   4.7700  40.3500  41.1300 H     1   SOL   0.4170
3883    OW  20.2900  27.6300  11.8500 O     1   SOL  -0.8340
3884   HW1  20.9300  28.3400  11.8900 H     1   SOL   0.4170
3885   HW2  20.7500  26.9200  11.3800 H     1   SOL   0.4170
3886    OW  16.3700  10.6300  33.5600 O     1   SOL  -0.8340
3887   HW1  16.3800   9.9400  34.2200 H     1   SOL   0.4170
3888   HW2  16.3100  10.1700  32.7200 H     1   SOL   0.4170
3889    OW  10.0500  15.8800  10.0300 O     1   SOL  -0.8340
3890   HW1  10.9500  16.1800  10.1400 H     1   SOL   0.4170
3891   HW2   9.8700  15.3700  10.8300 H     1   SOL   0.4170
3892    OW  15.3300  19.0100  26.4300 O     1   SOL  -0.8340
3893   HW1  15.7700  18.8000  27.2500 H     1   SOL   0.4170
3894   HW2  15.9300  19.6100  25.9800 H     1   SOL   0.4170
3895    OW  16.9200  21.0500  27.9500 O     1   SOL  -0.8340
3896   HW1  17.2800  20.6300  28.7400 H     1   SOL   0.4170
3897   HW2  16.3100  21.7000  28.2800 H     1   SOL   0.4170
3898    OW  13.6900   4.9300  27.9200 O     1   SOL  -0.8340
3899   HW1  13.2200   4.3000  28.4600 H     1   SOL   0.4170
3900   HW2  13.9000   4.4500  27.1200 H     1   SOL   0.4170
3901    OW  16.4900  29.9900  44.1000 O     1   SOL  -0.8340
3902   HW1  16.6600  29.5600  44.9400 H     1   SOL   0.4170
3903   HW2  17.2300  30.5800  43.9700 H     1   SOL   0.4170
3904    OW   2.4400  25.1200  42.9800 O     1   SOL  -0.8340
3905   HW1   2.7600  25.9800  43.2400 H     1   SOL   0.4170
3906   HW2   3.1100  24.7800  42.3800 H     1   SOL   0.4170
3907    OW  27.7200  27.7200  10.1400 O     1   SOL  -0.8340
3908   HW1  27.5200  28.1300   9.3000 H     1   SOL   0.4170
3909   HW2  27.7600  26.7900   9.9500 H     1   SOL   0.4170
3910    OW  40.4100  12.1700  40.5600 O     1   SOL  -0.8340
3911   HW1  39.8400  11.4100  40.6900 H     1   SOL   0.4170
3912   HW2  40.7200  12.0900  39.6600 H     1   SOL   0.4170
3913    OW  10.5500   1.1000   6.9200 O     1   SOL  -0.8340
3914   HW1  10.8900   1.9900   6.9000 H     1   SOL   0.4170
3915   HW2   9.6000   1.2100   6.9500 H     1   SOL   0.4170
3916    OW  17.4200  35.3500  16.9300 O     1   SOL  -0.8340
3917   HW1  17.0000  35.9400  17.5600 H     1   SOL   0.4170
3918   HW2  16.8200  35.3300  16.1900 H     1   SOL   0.4170
3919    OW  42.7100  19.7700  28.9800 O     1   SOL  -0.8340
3920   HW1  43.1100  20.5300  29.3900 H     1   SOL   0.4170
3921   HW2  42.8500  19.9000  28.0400 H     1   SOL   0.4170
3922    OW   5.5800  15.0600  28.7800 O     1   SOL  -0.8340
3923   HW1   4.9200  14.7800  29.4200 H     1   SOL   0.4170
3924   HW2   5.2600  15.9100  28.4600 H     1   SOL   0.4170
3925    OW   5.3900   4.2000  27.9100 O     1   SOL  -0.8340
3926   HW1   6.3000   4.4900  27.9700 H     1   SOL   0.4170
3927   HW2   5.4400   3.2500  28.0200 H     1   SOL   0.4170
3928    OW  36.4100  11.3700  13.3300 O     1   SOL  -0.8340
3929   HW1  36.2100  11.2200  14.2500 H     1   SOL   0.4170
3930   HW2  35.7300  11.9900  13.0400 H     1   SOL   0.4170
3931    OW  32.3400  41.9200  43.7300 O     1   SOL  -0.8340
3932   HW1  32.3100  42.1500  42.8000 H     1   SOL   0.4170
3933   HW2  31.6500  42.4500  44.1300 H     1   SOL   0.4170
3934    OW   9.9700  36.7800  22.2500 O     1   SOL  -0.8340
3935   HW1   9.0300  36.7800  22.0800 H     1   SOL   0.4170
3936   HW2  10.3200  37.4600  21.6800 H     1   SOL   0.4170
3937    OW  34.2800   3.4100  36.5000 O     1   SOL  -0.8340
3938   HW1  35.1600   3.3600  36.8600 H     1   SOL   0.4170
3939   HW2  33.8200   2.6600  36.8700 H     1   SOL   0.4170
3940    OW   4.1700   7.9000  39.7500 O     1   SOL  -0.8340
3941   HW1   4.8800   7.5400  39.2100 H     1   SOL   0.4170
3942   HW2   3.8000   7.1500  40.2000 H     1   SOL   0.4170
3943    OW  11.6500   0.9000  15.9500 O     1   SOL  -0.8340
3944   HW1  11.3100   0.0100  15.8400 H     1   SOL   0.4170
3945   HW2  12.1400   0.8600  16.7700 H     1   SOL   0.4170
3946    OW  26.2700   0.3500  23.4500 O     1   SOL  -0.8340
3947   HW1  26.2300   0.1700  22.5100 H     1   SOL   0.4170
3948   HW2  25.7300  -0.3400  23.8400 H     1   SOL   0.4170
3949    OW  16.6400   8.3000  20.3500 O     1   SOL  -0.8340
3950   HW1  16.6500   8.1300  21.2900 H     1   SOL   0.4170
3951   HW2  15.9500   8.9600  20.2300 H     1   SOL   0.4170
3952    OW  35.0500  14.0200  24.5000 O     1   SOL  -0.8340
3953   HW1  35.1000  14.6900  25.1800 H     1   SOL   0.4170
3954   HW2  34.1100  13.9700  24.2800 H     1   SOL   0.4170
3955    OW  15.4000   5.8200   9.6600 O     1   SOL  -0.8340
3956   HW1  14.7900   6.2000  10.2900 H     1   SOL   0.4170
3957   HW2  15.9400   5.2200  10.1700 H     1   SOL   0.4170
3958    OW  19.9000   3.3700  20.3100 O     1   SOL  -0.8340
3959   HW1  19.6000   3.2900  21.2100 H     1   SOL   0.4170
3960   HW2  19.8900   2.4700  19.9700 H     1   SOL   0.4170
3961    OW  14.7500   7.1100  29.5600 O     1   SOL  -0.8340
3962   HW1  14.3600   6.3700  29.1000 H     1   SOL   0.4170
3963   HW2  14.1000   7.8100  29.4800 H     1   SOL   0.4170
3964    OW  29.1000  35.7100  29.1700 O     1   SOL  -0.8340
3965   HW1  29.8600  36.3000  29.2100 H     1   SOL   0.4170
3966   HW2  28.3700  36.2400  29.5100 H     1   SOL   0.4170
3967    OW  31.9800  13.8300  23.2900 O     1   SOL  -0.8340
3968   HW1  31.9800  13.2800  22.5000 H     1   SOL   0.4170
3969   HW2  31.2600  13.4800  23.8200 H     1   SOL   0.4170
3970    OW   8.3800   2.3100  37.8400 O     1   SOL  -0.8340
3971   HW1   8.3700   3.1100  37.3100 H     1   SOL   0.4170
3972   HW2   7.4600   2.0500  37.8900 H     1   SOL   0.4170
3973    OW   9.8200  20.4300  20.9400 O     1   SOL  -0.8340
3974   HW1   9.2200  21.1600  20.8700 H     1   SOL   0.4170
3975   HW2  10.4900  20.6000  20.2700 H     1   SOL   0.4170
3976    OW  22.1700  37.7500  35.9800 O     1   SOL  -0.8340
3977   HW1  21.8900  37.1200  35.3100 H     1   SOL   0.4170
3978   HW2  21.9400  38.6000  35.6100 H     1   SOL   0.4170
3979    OW  39.1000  14.8100  12.1000 O     1   SOL  -0.8340
3980   HW1  38.8500  15.4400  11.4200 H     1   SOL   0.4170
3981   HW2  38.8100  15.2200  12.9200 H     1   SOL   0.4170
3982    OW   5.7800  16.9300  16.4900 O     1   SOL  -0.8340
3983   HW1   5.3800  16.0600  16.5100 H     1   SOL   0.4170
3984   HW2   6.6200  16.7900  16.0500 H     1   SOL   0.4170
3985    OW  25.0400   3.8400  16.0100 O     1   SOL  -0.8340
3986   HW1  24.9200   4.6800  16.4500 H     1   SOL   0.4170
3987   HW2  24.9800   3.1800  16.7100 H     1   SOL   0.4170
3988    OW  11.5200   6.5700  17.6300 O     1   SOL  -0.8340
3989   HW1  11.4600   7.4800  17.9300 H     1   SOL   0.4170
3990   HW2  11.2900   6.0500  18.4000 H     1   SOL   0.4170
3991    OW   1.2000  11.5000  31.7500 O     1   SOL  -0.8340
3992   HW1   2.1000  11.5900  32.0400 H     1   SOL   0.4170
3993   HW2   1.2600  11.1900  30.8500 H     1   SOL   0.4170
3994    OW  25.9700   4.2600  39.2000 O     1   SOL  -0.8340
3995   HW1  25.0200   4.1000  39.1700 H     1   SOL   0.4170
3996   HW2  26.1100   5.0200  38.6400 H     1   SOL   0.4170
3997    OW  40.4700   8.1400  35.6700 O     1   SOL  -0.8340
3998   HW1  39.5800   7.9300  35.3900 H     1   SOL   0.4170
3999   HW2  40.5700   9.0700  35.4500 H     1   SOL   0.4170
4000    OW  15.3900   3.4400  41.0300 O     1   SOL  -0.8340
4001   HW1  15.0100   3.0400  40.2500 H     1   SOL   0.4170
4002   HW2  16.2900   3.6200  40.7900 H     1   SOL   0.4170
4003    OW   1.9400  35.1200  46.1300 O     1   SOL  -0.8340
4004   HW1   1.2400  34.5000  45.9000 H     1   SOL   0.4170
4005   HW2   2.0100  35.0500  47.0800 H     1   SOL   0.4170
4006    OW  20.0800   2.0400  39.8400 O     1   SOL  -0.8340
4007   HW1  20.3200   1.7500  38.9600 H     1   SOL   0.4170
4008   HW2  20.9100   2.0800  40.3200 H     1   SOL   0.4170
4009    OW   8.5300   2.1100   9.6700 O     1   SOL  -0.8340
4010   HW1   8.2000   1.6100   8.9300 H     1   SOL   0.4170
4011   HW2   8.6900   1.4500  10.3500 H     1   SOL   0.4170
4012    OW  42.8800   6.7000  46.7300 O     1   SOL  -0.8340
4013   HW1  42.9600   5.7900  46.4500 H     1   SOL   0.4170
4014   HW2  43.1700   7.2100  45.9700 H     1   SOL   0.4170
4015    OW   5.4700   1.5000  28.6600 O     1   SOL  -0.8340
4016   HW1   4.6800   1.5900  29.2000 H     1   SOL   0.4170
4017   HW2   5.7700   0.6100  28.8300 H     1   SOL   0.4170
4018    OW  37.8100   8.0500   9.0500 O     1   SOL  -0.8340
4019   HW1  37.3800   8.9000   9.1300 H     1   SOL   0.4170
4020   HW2  38.6200   8.1400   9.5400 H     1   SOL   0.4170
4021    OW   3.2900  38.8500  12.5500 O     1   SOL  -0.8340
4022   HW1   3.5400  39.6600  12.1000 H     1   SOL   0.4170
4023   HW2   2.6200  39.1200  13.1800 H     1   SOL   0.4170
4024    OW   4.8600  12.0600  14.1200 O     1   SOL  -0.8340
4025   HW1   4.4700  11.2400  14.4300 H     1   SOL   0.4170
4026   HW2   5.8000  11.9500  14.2600 H     1   SOL   0.4170
4027    OW  24.7000   1.6900  12.4300 O     1   SOL  -0.8340
4028   HW1  25.3100   2.3600  12.1100 H     1   SOL   0.4170
4029   HW2  24.6300   1.0600  11.7200 H     1   SOL   0.4170
4030    OW   5.8900  28.8000  41.8900 O     1   SOL  -0.8340
4031   HW1   5.4900  29.6200  41.5900 H     1   SOL   0.4170
4032   HW2   6.3800  28.4800  41.1300 H     1   SOL   0.4170
4033    OW  39.9100  18.6900  41.0400 O     1   SOL  -0.8340
4034   HW1  40.1300  18.1900  40.2500 H     1   SOL   0.4170
4035   HW2  39.4200  18.0800  41.5800 H     1   SOL   0.4170
4036    OW  22.5900  18.8000  27.1500 O     1   SOL  -0.8340
4037   HW1  22.7900  19.0500  28.0500 H     1   SOL   0.4170
4038   HW2  21.6400  18.8800  27.0900 H     1   SOL   0.4170
4039    OW  41.5000  36.0200  10.4300 O     1   SOL  -0.8340
4040   HW1  41.9600  36.8200  10.7000 H     1   SOL   0.4170
4041   HW2  42.0200  35.3100  10.7900 H     1   SOL   0.4170
4042    OW   1.0600   7.3600  26.6500 O     1   SOL  -0.8340
4043   HW1   0.6700   7.7800  25.8900 H     1   SOL   0.4170
4044   HW2   1.8800   6.9900  26.3300 H     1   SOL   0.4170
4045    OW  14.2700  32.2300  15.2500 O     1   SOL  -0.8340
4046   HW1  13.4400  32.7100  15.3200 H     1   SOL   0.4170
4047   HW2  14.1000  31.3900  15.6700 H     1   SOL   0.4170
4048    OW  37.6400  32.6500  39.8100 O     1   SOL  -0.8340
4049   HW1  37.8000  31.9600  40.4600 H     1   SOL   0.4170
4050   HW2  38.3400  32.5500  39.1700 H     1   SOL   0.4170
4051    OW  36.1000  33.3600  27.1300 O     1   SOL  -0.8340
4052   HW1  36.2300  32.9200  27.9700 H     1   SOL   0.4170
4053   HW2  35.6600  34.1800  27.3700 H     1   SOL   0.4170
4054    OW   4.7400  20.0900  50.8900 O     1   SOL  -0.8340
4055   HW1   5.4100  20.5200  50.3500 H     1   SOL   0.4170
4056   HW2   3.9800  20.6700  50.8200 H     1   SOL   0.4170
4057    OW  19.2400  27.5100  31.8900 O     1   SOL  -0.8340
4058   HW1  18.6900  27.7700  31.1500 H     1   SOL   0.4170
4059   HW2  20.0400  27.1600  31.4900 H     1   SOL   0.4170
4060    OW   5.2000  39.5600  14.3700 O     1   SOL  -0.8340
4061   HW1   4.7700  39.1200  13.6400 H     1   SOL   0.4170
4062   HW2   5.3400  40.4500  14.0700 H     1   SOL   0.4170
4063    OW  38.7100  10.9600  46.0000 O     1   SOL  -0.8340
4064   HW1  38.6800  10.9500  45.0500 H     1   SOL   0.4170
4065   HW2  38.5000  11.8600  46.2400 H     1   SOL   0.4170
4066    OW  39.5100  27.5200  43.8300 O     1   SOL  -0.8340
4067   HW1  39.1500  26.6700  44.0900 H     1   SOL   0.4170
4068   HW2  38.7300  28.0700  43.6900 H     1   SOL   0.4170
4069    OW  12.9100   0.4300  25.6200 O     1   SOL  -0.8340
4070   HW1  12.0200   0.3900  25.9700 H     1   SOL   0.4170
4071   HW2  13.4500   0.6500  26.3700 H     1   SOL   0.4170
4072    OW  30.1400  30.6600  35.1700 O     1   SOL  -0.8340
4073   HW1  30.9900  30.9100  34.7900 H     1   SOL   0.4170
4074   HW2  30.3700  30.2700  36.0100 H     1   SOL   0.4170
4075    OW  13.7200  20.9700  15.8500 O     1   SOL  -0.8340
4076   HW1  14.2600  20.5200  15.2100 H     1   SOL   0.4170
4077   HW2  13.1300  21.5200  15.3300 H     1   SOL   0.4170
4078    OW   3.9600  41.8500  40.1000 O     1   SOL  -0.8340
4079   HW1   3.5100  42.1700  40.8800 H     1   SOL   0.4170
4080   HW2   3.6100  42.3800  39.3900 H     1   SOL   0.4170
4081    OW  35.9300   3.5800  34.3100 O     1   SOL  -0.8340
4082   HW1  35.2300   3.5200  34.9600 H     1   SOL   0.4170
4083   HW2  36.6200   4.0800  34.7400 H     1   SOL   0.4170
4084    OW  16.2000  19.4100  31.0300 O     1   SOL  -0.8340
4085   HW1  15.4400  19.9100  30.7500 H     1   SOL   0.4170
4086   HW2  15.8300  18.6000  31.3900 H     1   SOL   0.4170
4087    OW   5.7600   4.5600  22.2000 O     1   SOL  -0.8340
4088   HW1   6.6900   4.4300  22.0300 H     1   SOL   0.4170
4089   HW2   5.7100   4.6800  23.1500 H     1   SOL   0.4170
4090    OW  28.3200  14.0800  28.8000 O     1   SOL  -0.8340
4091   HW1  29.0400  14.6200  28.4400 H     1   SOL   0.4170
4092   HW2  27.5500  14.6300  28.7200 H     1   SOL   0.4170
4093    OW  31.1300   5.9800  27.0700 O     1   SOL  -0.8340
4094   HW1  30.6300   5.3000  27.5300 H     1   SOL   0.4170
4095   HW2  31.6200   6.4300  27.7600 H     1   SOL   0.4170
4096    OW   5.4600  18.2000  24.3100 O     1   SOL  -0.8340
4097   HW1   5.6000  17.3400  23.9200 H     1   SOL   0.4170
4098   HW2   6.2400  18.3600  24.8400 H     1   SOL   0.4170
4099    OW  28.5500  10.0300  31.4700 O     1   SOL  -0.8340
4100   HW1  28.9400  10.9000  31.4200 H     1   SOL   0.4170
4101   HW2  29.3000   9.4300  31.4800 H     1   SOL   0.4170
4102    OW  16.6900   3.2900  23.5500 O     1   SOL  -0.8340
4103   HW1  16.3400   3.9800  22.9900 H     1   SOL   0.4170
4104   HW2  17.5900   3.1500  23.2300 H     1   SOL   0.4170
4105    OW   6.5600  33.7800  30.4100 O     1   SOL  -0.8340
4106   HW1   6.4600  34.4100  31.1300 H     1   SOL   0.4170
4107   HW2   7.4500  33.9300  30.0800 H     1   SOL   0.4170
4108    OW   0.2600  17.7800  46.7800 O     1   SOL  -0.8340
4109   HW1   1.2000  17.6600  46.6400 H     1   SOL   0.4170
4110   HW2  -0.1000  17.8500  45.9000 H     1   SOL   0.4170
4111    OW  10.6700   1.3100  13.3800 O     1   SOL  -0.8340
4112   HW1  11.3900   1.8000  12.9800 H     1   SOL   0.4170
4113   HW2  10.8600   1.3400  14.3200 H     1   SOL   0.4170
4114    OW  12.5000  30.1400  21.6600 O     1   SOL  -0.8340
4115   HW1  12.5600  30.7600  22.3900 H     1   SOL   0.4170
4116   HW2  11.8500  30.5300  21.0700 H     1   SOL   0.4170
4117    OW   7.9500  18.5700  40.2900 O     1   SOL  -0.8340
4118   HW1   7.3400  17.9000  39.9900 H     1   SOL   0.4170
4119   HW2   7.4600  19.3900  40.2500 H     1   SOL   0.4170
4120    OW   2.6800  39.5200  39.0500 O     1   SOL  -0.8340
4121   HW1   3.1000  40.1500  39.6200 H     1   SOL   0.4170
4122   HW2   2.4400  40.0200  38.2700 H     1   SOL   0.4170
4123    OW  23.3900  14.0200  18.0700 O     1   SOL  -0.8340
4124   HW1  23.6700  13.9200  17.1600 H     1   SOL   0.4170
4125   HW2  24.2000  14.1500  18.5600 H     1   SOL   0.4170
4126    OW  37.2500  19.2500  13.5200 O     1   SOL  -0.8340
4127   HW1  36.4100  19.4700  13.1100 H     1   SOL   0.4170
4128   HW2  37.4500  20.0000  14.0800 H     1   SOL   0.4170
4129    OW   9.5400  21.5400  34.3600 O     1   SOL  -0.8340
4130   HW1   9.5500  21.1000  33.5100 H     1   SOL   0.4170
4131   HW2  10.3000  22.1300  34.3200 H     1   SOL   0.4170
4132    OW  42.9400  18.8700  41.1700 O     1   SOL  -0.8340
4133   HW1  42.8400  18.1100  40.5900 H     1   SOL   0.4170
4134   HW2  42.0500  19.1800  41.3200 H     1   SOL   0.4170
4135    OW  18.4800   6.7900  11.2500 O     1   SOL  -0.8340
4136   HW1  19.3000   7.2700  11.1300 H     1   SOL   0.4170
4137   HW2  18.5600   6.4000  12.1200 H     1   SOL   0.4170
4138    OW  11.0300  40.3200  17.3100 O     1   SOL  -0.8340
4139   HW1  10.8700  41.0400  16.7000 H     1   SOL   0.4170
4140   HW2  10.7200  40.6500  18.1600 H     1   SOL   0.4170
4141    OW  16.8500  11.5400  19.7300 O     1   SOL  -0.8340
4142   HW1  16.3100  11.7600  18.9800 H     1   SOL   0.4170
4143   HW2  17.6000  11.0800  19.3600 H     1   SOL   0.4170
4144    OW  31.2800  33.8700  30.3800 O     1   SOL  -0.8340
4145   HW1  30.5900  34.4600  30.0700 H     1   SOL   0.4170
4146   HW2  31.4500  34.1400  31.2800 H     1   SOL   0.4170
4147    OW   8.3800  18.8200  17.1900 O     1   SOL  -0.8340
4148   HW1   8.7100  18.3200  17.9500 H     1   SOL   0.4170
4149   HW2   7.6000  19.2600  17.5200 H     1   SOL   0.4170
4150    OW  21.1500  41.7800  19.3800 O     1   SOL  -0.8340
4151   HW1  20.7500  41.9200  20.2400 H     1   SOL   0.4170
4152   HW2  21.1500  40.8300  19.2700 H     1   SOL   0.4170
4153    OW  37.3000  36.3800  28.3200 O     1   SOL  -0.8340
4154   HW1  37.1600  35.8600  29.1200 H     1   SOL   0.4170
4155   HW2  36.5700  36.1600  27.7500 H     1   SOL   0.4170
4156    OW   3.8900  10.5100  22.7700 O     1   SOL  -0.8340
4157   HW1   4.7900  10.8500  22.7900 H     1   SOL   0.4170
4158   HW2   3.8700   9.8700  23.4900 H     1   SOL   0.4170
4159    OW   9.0300  26.6700  36.5500 O     1   SOL  -0.8340
4160   HW1   9.1500  25.7300  36.3900 H     1   SOL   0.4170
4161   HW2   9.7400  26.9000  37.1500 H     1   SOL   0.4170
4162    OW  32.7800  11.1800  18.1400 O     1   SOL  -0.8340
4163   HW1  33.3900  11.9200  18.2100 H     1   SOL   0.4170
4164   HW2  32.0000  11.5500  17.7400 H     1   SOL   0.4170
4165    OW   4.3900   7.9600  62.0700 O     1   SOL  -0.8340
4166   HW1   4.6800   8.7200  62.5700 H     1   SOL   0.4170
4167   HW2   3.4600   7.8500  62.3100 H     1   SOL   0.4170
4168    OW  11.4700  10.2600  27.6200 O     1   SOL  -0.8340
4169   HW1  11.7800  10.1700  28.5200 H     1   SOL   0.4170
4170   HW2  12.2000   9.9700  27.0800 H     1   SOL   0.4170
4171    OW  16.0200   2.6200  18.9600 O     1   SOL  -0.8340
4172   HW1  15.9800   2.3300  18.0500 H     1   SOL   0.4170
4173   HW2  16.2200   3.5500  18.9100 H     1   SOL   0.4170
4174    OW   5.2900   5.4800  33.9700 O     1   SOL  -0.8340
4175   HW1   4.7200   6.2500  34.0100 H     1   SOL   0.4170
4176   HW2   5.2900   5.2300  33.0400 H     1   SOL   0.4170
4177    OW   2.0500  10.7500  28.5500 O     1   SOL  -0.8340
4178   HW1   2.8000  11.2300  28.2100 H     1   SOL   0.4170
4179   HW2   1.3500  10.9000  27.9100 H     1   SOL   0.4170
4180    OW  34.2500  16.9400   9.1900 O     1   SOL  -0.8340
4181   HW1  33.7200  17.6200   9.6100 H     1   SOL   0.4170
4182   HW2  33.6100  16.4100   8.7200 H     1   SOL   0.4170
4183    OW  36.1700   2.6500  38.2700 O     1   SOL  -0.8340
4184   HW1  36.2600   3.1900  39.0500 H     1   SOL   0.4170
4185   HW2  37.0000   2.1800  38.1900 H     1   SOL   0.4170
4186    OW  40.0200   7.4600  47.1200 O     1   SOL  -0.8340
4187   HW1  40.9100   7.1800  47.3300 H     1   SOL   0.4170
4188   HW2  39.4600   6.7700  47.4800 H     1   SOL   0.4170
4189    OW   7.4900  23.0500  14.6300 O     1   SOL  -0.8340
4190   HW1   7.8400  22.5600  15.3800 H     1   SOL   0.4170
4191   HW2   6.6300  22.6600  14.4600 H     1   SOL   0.4170
4192    OW  32.5600  14.4900  18.8500 O     1   SOL  -0.8340
4193   HW1  32.3600  15.1900  19.4600 H     1   SOL   0.4170
4194   HW2  33.3600  14.0900  19.1800 H     1   SOL   0.4170
4195    OW  32.7900  16.8700  29.6300 O     1   SOL  -0.8340
4196   HW1  32.2700  16.6300  28.8600 H     1   SOL   0.4170
4197   HW2  32.8600  16.0600  30.1300 H     1   SOL   0.4170
4198    OW  10.6600   9.8900  23.9000 O     1   SOL  -0.8340
4199   HW1  11.4500   9.3700  24.0600 H     1   SOL   0.4170
4200   HW2  10.7200  10.6000  24.5300 H     1   SOL   0.4170
4201    OW  31.2100   4.1000  40.6200 O     1   SOL  -0.8340
4202   HW1  30.5200   4.3600  40.0100 H     1   SOL   0.4170
4203   HW2  31.8200   3.5900  40.0800 H     1   SOL   0.4170
4204    OW  43.1200   5.1600  43.7100 O     1   SOL  -0.8340
4205   HW1  43.8400   5.6800  43.3600 H     1   SOL   0.4170
4206   HW2  43.4500   4.8500  44.5600 H     1   SOL   0.4170
4207    OW  12.0200  27.1700  34.0000 O     1   SOL  -0.8340
4208   HW1  11.9400  27.0400  33.0500 H     1   SOL   0.4170
4209   HW2  11.1200  27.2800  34.3000 H     1   SOL   0.4170
4210    OW   3.1600   5.4300  29.4700 O     1   SOL  -0.8340
4211   HW1   3.1900   6.3900  29.4100 H     1   SOL   0.4170
4212   HW2   3.8100   5.1300  28.8400 H     1   SOL   0.4170
4213    OW   7.5100   1.7400  24.1200 O     1   SOL  -0.8340
4214   HW1   7.7400   1.2600  24.9100 H     1   SOL   0.4170
4215   HW2   6.6800   1.3600  23.8300 H     1   SOL   0.4170
4216    OW  18.4100  21.2000  25.1600 O     1   SOL  -0.8340
4217   HW1  18.2100  20.8300  26.0200 H     1   SOL   0.4170
4218   HW2  18.8500  22.0300  25.3500 H     1   SOL   0.4170
4219    OW  15.1400  27.5600  14.8700 O     1   SOL  -0.8340
4220   HW1  14.8300  28.3300  14.4000 H     1   SOL   0.4170
4221   HW2  15.8700  27.2300  14.3400 H     1   SOL   0.4170
4222    OW   5.7900  40.4600  32.1100 O     1   SOL  -0.8340
4223   HW1   6.1000  40.3300  33.0100 H     1   SOL   0.4170
4224   HW2   5.6400  41.4000  32.0500 H     1   SOL   0.4170
4225    OW  39.7800  12.1900  25.3600 O     1   SOL  -0.8340
4226   HW1  38.9100  11.8500  25.5600 H     1   SOL   0.4170
4227   HW2  40.3400  11.4100  25.3400 H     1   SOL   0.4170
4228    OW  25.3100  18.4900  38.2500 O     1   SOL  -0.8340
4229   HW1  24.8000  19.3000  38.3000 H     1   SOL   0.4170
4230   HW2  24.8200  17.9300  37.6500 H     1   SOL   0.4170
4231    OW  32.7000   9.1400  34.2100 O     1   SOL  -0.8340
4232   HW1  32.2200   8.9500  35.0100 H     1   SOL   0.4170
4233   HW2  33.5400   9.5000  34.5100 H     1   SOL   0.4170
4234    OW   3.4700  13.7700  37.6500 O     1   SOL  -0.8340
4235   HW1   3.0700  12.9300  37.4000 H     1   SOL   0.4170
4236   HW2   3.0500  13.9900  38.4800 H     1   SOL   0.4170
4237    OW   3.0900   4.1300  35.9000 O     1   SOL  -0.8340
4238   HW1   3.6400   4.7800  35.4700 H     1   SOL   0.4170
4239   HW2   2.2000   4.4800  35.8500 H     1   SOL   0.4170
4240    OW   8.9700   2.9500  30.5300 O     1   SOL  -0.8340
4241   HW1   8.2500   2.3500  30.7200 H     1   SOL   0.4170
4242   HW2   9.2500   3.2700  31.3900 H     1   SOL   0.4170
4243    OW  38.4800   9.3600  24.6500 O     1   SOL  -0.8340
4244   HW1  39.4200   9.5300  24.7700 H     1   SOL   0.4170
4245   HW2  38.1400  10.1600  24.2700 H     1   SOL   0.4170
4246    OW  15.1200  11.6000  25.1200 O     1   SOL  -0.8340
4247   HW1  14.9300  10.8200  24.6000 H     1   SOL   0.4170
4248   HW2  15.6200  12.1600  24.5300 H     1   SOL   0.4170
4249    OW  14.5200   0.5200  27.6100 O     1   SOL  -0.8340
4250   HW1  15.3400   1.0200  27.5400 H     1   SOL   0.4170
4251   HW2  14.3900   0.4200  28.5500 H     1   SOL   0.4170
4252    OW   0.3500   1.4400  28.6500 O     1   SOL  -0.8340
4253   HW1   0.5500   2.3000  28.2600 H     1   SOL   0.4170
4254   HW2   0.3400   0.8400  27.9000 H     1   SOL   0.4170
4255    OW  27.0700  11.8100  34.2800 O     1   SOL  -0.8340
4256   HW1  26.9100  11.7600  33.3400 H     1   SOL   0.4170
4257   HW2  26.2400  12.1300  34.6500 H     1   SOL   0.4170
4258    OW  16.7400   0.3300  49.4000 O     1   SOL  -0.8340
4259   HW1  16.8700   0.5200  48.4800 H     1   SOL   0.4170
4260   HW2  16.0100  -0.3000  49.4200 H     1   SOL   0.4170
4261    OW  15.1000  31.6400  31.4700 O     1   SOL  -0.8340
4262   HW1  14.5400  30.9700  31.8500 H     1   SOL   0.4170
4263   HW2  15.9900  31.3200  31.6100 H     1   SOL   0.4170
4264    OW   8.0600  15.0000  18.5100 O     1   SOL  -0.8340
4265   HW1   8.2000  15.8200  18.0400 H     1   SOL   0.4170
4266   HW2   8.6700  15.0300  19.2500 H     1   SOL   0.4170
4267    OW   5.1300  41.2800  22.1900 O     1   SOL  -0.8340
4268   HW1   5.2300  41.5600  23.1000 H     1   SOL   0.4170
4269   HW2   4.2800  40.8600  22.1600 H     1   SOL   0.4170
4270    OW  42.5800  17.3000  10.9300 O     1   SOL  -0.8340
4271   HW1  42.6400  16.7400  11.7000 H     1   SOL   0.4170
4272   HW2  42.5900  18.1900  11.2800 H     1   SOL   0.4170
4273    OW  41.0400  27.2500   9.3300 O     1   SOL  -0.8340
4274   HW1  41.3700  27.7400  10.0900 H     1   SOL   0.4170
4275   HW2  40.6300  26.4800   9.7200 H     1   SOL   0.4170
4276    OW   0.5000  15.2200  35.0800 O     1   SOL  -0.8340
4277   HW1   0.3000  15.9300  34.4700 H     1   SOL   0.4170
4278   HW2  -0.3600  14.8900  35.3500 H     1   SOL   0.4170
4279    OW  34.8600   3.7800  53.9700 O     1   SOL  -0.8340
4280   HW1  35.3900   3.0300  54.2400 H     1   SOL   0.4170
4281   HW2  35.3600   4.5400  54.2700 H     1   SOL   0.4170
4282    OW   5.4500   9.3100  42.4400 O     1   SOL  -0.8340
4283   HW1   4.8300   8.7700  42.9300 H     1   SOL   0.4170
4284   HW2   5.1300   9.2900  41.5400 H     1   SOL   0.4170
4285    OW  14.8000   9.2300  50.8700 O     1   SOL  -0.8340
4286   HW1  14.4400   9.6400  51.6600 H     1   SOL   0.4170
4287   HW2  15.7100   9.0400  51.0900 H     1   SOL   0.4170
4288    OW  24.0200  10.4000  33.4200 O     1   SOL  -0.8340
4289   HW1  24.2200  11.1900  32.9100 H     1   SOL   0.4170
4290   HW2  24.1400  10.6800  34.3300 H     1   SOL   0.4170
4291    OW  10.3700   8.0000  43.5700 O     1   SOL  -0.8340
4292   HW1  10.9600   7.2600  43.6700 H     1   SOL   0.4170
4293   HW2  10.1300   8.2400  44.4700 H     1   SOL   0.4170
4294    OW  23.9800   9.7200  18.8800 O     1   SOL  -0.8340
4295   HW1  24.1200   8.9600  18.3000 H     1   SOL   0.4170
4296   HW2  23.1200  10.0500  18.6300 H     1   SOL   0.4170
4297    OW  25.3300  23.6300  72.8900 O     1   SOL  -0.8340
4298   HW1  24.5900  24.2100  73.0800 H     1   SOL   0.4170
4299   HW2  25.9900  23.8800  73.5300 H     1   SOL   0.4170
4300    OW   2.8500   9.2200  65.4700 O     1   SOL  -0.8340
4301   HW1   2.0000   8.8100  65.5800 H     1   SOL   0.4170
4302   HW2   2.7400  10.1100  65.8200 H     1   SOL   0.4170
4303    OW  38.6500   1.1300  38.3200 O     1   SOL  -0.8340
4304   HW1  38.8000   0.2200  38.0700 H     1   SOL   0.4170
4305   HW2  39.3500   1.3300  38.9400 H     1   SOL   0.4170
4306    OW  20.9500   6.5400  72.7700 O     1   SOL  -0.8340
4307   HW1  21.4700   7.3400  72.6700 H     1   SOL   0.4170
4308   HW2  20.4700   6.4600  71.9500 H     1   SOL   0.4170
4309    OW  15.4400  23.2000  72.9600 O     1   SOL  -0.8340
4310   HW1  14.6000  23.3300  72.5200 H     1   SOL   0.4170
4311   HW2  15.2800  22.5000  73.5900 H     1   SOL   0.4170
4312    OW  29.4300  19.6100  58.9100 O     1   SOL  -0.8340
4313   HW1  29.5400  20.2200  59.6300 H     1   SOL   0.4170
4314   HW2  29.0200  18.8400  59.3000 H     1   SOL   0.4170
4315    OW   8.9800  14.2200  46.5200 O     1   SOL  -0.8340
4316   HW1   8.5400  13.7500  47.2300 H     1   SOL   0.4170
4317   HW2   9.3800  14.9800  46.9500 H     1   SOL   0.4170
4318    OW   2.2300  26.3300  49.8900 O     1   SOL  -0.8340
4319   HW1   1.6100  26.0800  49.2000 H     1   SOL   0.4170
4320   HW2   1.7000  26.8100  50.5200 H     1   SOL   0.4170
4321    OW  34.2500   5.6400  64.6900 O     1   SOL  -0.8340
4322   HW1  33.5800   6.0600  65.2300 H     1   SOL   0.4170
4323   HW2  33.9700   5.8300  63.7900 H     1   SOL   0.4170
4324    OW  42.2200  16.4800  63.2900 O     1   SOL  -0.8340
4325   HW1  41.9400  16.1800  62.4200 H     1   SOL   0.4170
4326   HW2  42.7500  17.2600  63.1100 H     1   SOL   0.4170
4327    OW  14.6900  12.4000  34.8200 O     1   SOL  -0.8340
4328   HW1  14.0900  12.6600  34.1300 H     1   SOL   0.4170
4329   HW2  15.1500  11.6400  34.4600 H     1   SOL   0.4170
4330    OW  29.7600   4.3700  35.8900 O     1   SOL  -0.8340
4331   HW1  29.6300   4.7200  35.0100 H     1   SOL   0.4170
4332   HW2  29.4600   3.4600  35.8400 H     1   SOL   0.4170
4333    OW  24.5000  11.9800  35.6000 O     1   SOL  -0.8340
4334   HW1  23.7100  12.0700  36.1300 H     1   SOL   0.4170
4335   HW2  25.2000  12.3300  36.1500 H     1   SOL   0.4170
4336    OW  16.5200  21.4700  59.0800 O     1   SOL  -0.8340
4337   HW1  17.0700  22.1400  59.4800 H     1   SOL   0.4170
4338   HW2  16.1300  21.9000  58.3200 H     1   SOL   0.4170
4339    OW  10.5800  18.0400  34.4400 O     1   SOL  -0.8340
4340   HW1  10.8000  18.9700  34.3900 H     1   SOL   0.4170
4341   HW2  11.4100  17.5800  34.3600 H     1   SOL   0.4170
4342    OW  41.1600   6.7100  64.1800 O     1   SOL  -0.8340
4343   HW1  40.7700   7.5800  64.2900 H     1   SOL   0.4170
4344   HW2  41.0900   6.5400  63.2400 H     1   SOL   0.4170
4345    OW  36.0800   1.4600  68.7200 O     1   SOL  -0.8340
4346   HW1  35.6900   0.6100  68.5300 H     1   SOL   0.4170
4347   HW2  36.7600   1.2800  69.3700 H     1   SOL   0.4170
4348    OW  28.9200  21.7800  49.2300 O     1   SOL  -0.8340
4349   HW1  29.4200  22.1800  49.9400 H     1   SOL   0.4170
4350   HW2  28.8900  20.8500  49.4500 H     1   SOL   0.4170
4351    OW  41.8700  33.1800  40.9500 O     1   SOL  -0.8340
4352   HW1  42.6300  33.6800  40.6600 H     1   SOL   0.4170
4353   HW2  41.3200  33.8200  41.4100 H     1   SOL   0.4170
4354    OW   2.8100  22.1400  54.0600 O     1   SOL  -0.8340
4355   HW1   2.9900  23.0200  53.7200 H     1   SOL   0.4170
4356   HW2   3.6700  21.7900  54.2900 H     1   SOL   0.4170
4357    OW  14.2100  21.2500  30.6200 O     1   SOL  -0.8340
4358   HW1  13.3600  21.3700  31.0400 H     1   SOL   0.4170
4359   HW2  14.2200  21.9000  29.9100 H     1   SOL   0.4170
4360    OW  14.3000  39.1000  54.4400 O     1   SOL  -0.8340
4361   HW1  13.6100  39.6500  54.8200 H     1   SOL   0.4170
4362   HW2  14.0100  38.2000  54.6100 H     1   SOL   0.4170
4363    OW   8.7300   0.6200  53.7400 O     1   SOL  -0.8340
4364   HW1   8.1700  -0.1500  53.7400 H     1   SOL   0.4170
4365   HW2   8.7800   0.8900  52.8300 H     1   SOL   0.4170
4366    OW  10.6400  17.2800  69.7600 O     1   SOL  -0.8340
4367   HW1  10.3000  18.0400  69.2800 H     1   SOL   0.4170
4368   HW2   9.9100  16.9900  70.3100 H     1   SOL   0.4170
4369    OW  42.0800  19.3600  33.6300 O     1   SOL  -0.8340
4370   HW1  41.5700  19.1100  34.4000 H     1   SOL   0.4170
4371   HW2  42.2800  18.5300  33.2000 H     1   SOL   0.4170
4372    OW   0.3000  33.0100  49.7200 O     1   SOL  -0.8340
4373   HW1  -0.2100  32.8200  48.9300 H     1   SOL   0.4170
4374   HW2   0.5700  32.1600  50.0400 H     1   SOL   0.4170
4375    OW  17.7600  24.5200  28.2900 O     1   SOL  -0.8340
4376   HW1  16.9700  23.9800  28.3600 H     1   SOL   0.4170
4377   HW2  18.1000  24.5700  29.1800 H     1   SOL   0.4170
4378    OW  19.0800  23.9700  47.0200 O     1   SOL  -0.8340
4379   HW1  18.7400  23.2800  47.5900 H     1   SOL   0.4170
4380   HW2  19.4900  23.4900  46.2900 H     1   SOL   0.4170
4381    OW  24.5600  24.2400  57.9100 O     1   SOL  -0.8340
4382   HW1  24.7100  25.0400  58.4100 H     1   SOL   0.4170
4383   HW2  25.4100  24.0300  57.5300 H     1   SOL   0.4170
4384    OW  33.7300  35.5500  51.5600 O     1   SOL  -0.8340
4385   HW1  34.2100  35.7500  50.7600 H     1   SOL   0.4170
4386   HW2  32.8000  35.5900  51.3100 H     1   SOL   0.4170
4387    OW  15.3800   9.1800  41.1500 O     1   SOL  -0.8340
4388   HW1  16.1100   9.4600  41.7000 H     1   SOL   0.4170
4389   HW2  14.9100   8.5500  41.6900 H     1   SOL   0.4170
4390    OW   0.3200  14.8600  57.8300 O     1   SOL  -0.8340
4391   HW1   0.7000  15.3200  57.0800 H     1   SOL   0.4170
4392   HW2   0.4900  13.9300  57.6600 H     1   SOL   0.4170
4393    OW  13.4900  33.8000  32.5500 O     1   SOL  -0.8340
4394   HW1  14.0500  34.5700  32.6700 H     1   SOL   0.4170
4395   HW2  14.0700  33.1500  32.1600 H     1   SOL   0.4170
4396    OW  43.0300  29.3900  43.3200 O     1   SOL  -0.8340
4397   HW1  42.4200  29.7200  42.6600 H     1   SOL   0.4170
4398   HW2  42.5300  29.3700  44.1300 H     1   SOL   0.4170
4399    OW  11.7400   9.1100  46.7600 O     1   SOL  -0.8340
4400   HW1  12.1100   9.4100  47.5900 H     1   SOL   0.4170
4401   HW2  12.1000   9.7100  46.1100 H     1   SOL   0.4170
4402    OW   1.3400  42.3000  41.2800 O     1   SOL  -0.8340
4403   HW1   0.4300  42.2500  41.0000 H     1   SOL   0.4170
4404   HW2   1.3000  42.3000  42.2400 H     1   SOL   0.4170
4405    OW   3.2200  21.0100  41.8100 O     1   SOL  -0.8340
4406   HW1   3.9400  21.6300  41.9200 H     1   SOL   0.4170
4407   HW2   2.8400  21.2300  40.9600 H     1   SOL   0.4170
4408    OW   7.8400  31.0500  67.8000 O     1   SOL  -0.8340
4409   HW1   6.9900  30.6900  67.5200 H     1   SOL   0.4170
4410   HW2   7.8600  31.9300  67.4200 H     1   SOL   0.4170
4411    OW  17.2200  17.3900  46.3200 O     1   SOL  -0.8340
4412   HW1  16.8600  16.5600  46.0000 H     1   SOL   0.4170
4413   HW2  16.4500  17.9300  46.5000 H     1   SOL   0.4170
4414    OW  29.4200   4.4500  38.7200 O     1   SOL  -0.8340
4415   HW1  28.4900   4.2200  38.8500 H     1   SOL   0.4170
4416   HW2  29.5100   4.5300  37.7700 H     1   SOL   0.4170
4417    OW  24.7300  16.1400  43.0000 O     1   SOL  -0.8340
4418   HW1  25.2100  15.3100  42.9600 H     1   SOL   0.4170
4419   HW2  24.9200  16.5800  42.1700 H     1   SOL   0.4170
4420    OW  25.4900  42.5900  71.6300 O     1   SOL  -0.8340
4421   HW1  25.5400  41.7600  72.1100 H     1   SOL   0.4170
4422   HW2  24.5900  42.6300  71.3100 H     1   SOL   0.4170
4423    OW   9.6400  19.5600  59.9500 O     1   SOL  -0.8340
4424   HW1   9.9400  20.1900  60.6000 H     1   SOL   0.4170
4425   HW2   9.0500  18.9800  60.4200 H     1   SOL   0.4170
4426    OW  11.6500  20.6300  36.3900 O     1   SOL  -0.8340
4427   HW1  12.1000  20.3200  37.1800 H     1   SOL   0.4170
4428   HW2  10.7200  20.6500  36.6400 H     1   SOL   0.4170
4429    OW  19.7700   4.7300  37.2100 O     1   SOL  -0.8340
4430   HW1  20.6600   4.4900  37.4800 H     1   SOL   0.4170
4431   HW2  19.3300   3.8900  37.0600 H     1   SOL   0.4170
4432    OW   2.4800   8.2400  29.3400 O     1   SOL  -0.8340
4433   HW1   2.3700   9.1800  29.2100 H     1   SOL   0.4170
4434   HW2   1.8500   7.8400  28.7400 H     1   SOL   0.4170
4435    OW  19.5400  11.9100  47.3500 O     1   SOL  -0.8340
4436   HW1  18.6800  11.8700  47.7600 H     1   SOL   0.4170
4437   HW2  20.1300  12.1700  48.0600 H     1   SOL   0.4170
4438    OW  20.9100   6.3400  45.4200 O     1   SOL  -0.8340
4439   HW1  21.2900   5.8500  44.6900 H     1   SOL   0.4170
4440   HW2  20.0900   5.8900  45.6200 H     1   SOL   0.4170
4441    OW   4.4500  38.8700  47.6600 O     1   SOL  -0.8340
4442   HW1   4.4600  39.8000  47.8800 H     1   SOL   0.4170
4443   HW2   3.6300  38.7500  47.1700 H     1   SOL   0.4170
4444    OW   4.2500  38.4600  31.0500 O     1   SOL  -0.8340
4445   HW1   4.8800  39.0700  31.4400 H     1   SOL   0.4170
4446   HW2   3.5700  38.3600  31.7200 H     1   SOL   0.4170
4447    OW  38.6600  15.4000  45.3500 O     1   SOL  -0.8340
4448   HW1  38.4100  14.4900  45.5000 H     1   SOL   0.4170
4449   HW2  38.5100  15.5400  44.4100 H     1   SOL   0.4170
4450    OW  17.1000  17.5300  52.2000 O     1   SOL  -0.8340
4451   HW1  17.2800  17.6200  53.1400 H     1   SOL   0.4170
4452   HW2  17.9300  17.7400  51.7800 H     1   SOL   0.4170
4453    OW  19.0300  11.3200  58.2900 O     1   SOL  -0.8340
4454   HW1  19.9000  11.7100  58.1900 H     1   SOL   0.4170
4455   HW2  19.0400  10.5500  57.7200 H     1   SOL   0.4170
4456    OW   3.1600  26.6800  59.1400 O     1   SOL  -0.8340
4457   HW1   3.7900  26.0900  59.5500 H     1   SOL   0.4170
4458   HW2   3.1000  27.4200  59.7500 H     1   SOL   0.4170
4459    OW   1.3600  31.9500  43.4900 O     1   SOL  -0.8340
4460   HW1   0.9700  32.6700  43.9900 H     1   SOL   0.4170
4461   HW2   0.6800  31.7100  42.8500 H     1   SOL   0.4170
4462    OW  12.8600  21.3500  19.6600 O     1   SOL  -0.8340
4463   HW1  12.3100  22.0900  19.9200 H     1   SOL   0.4170
4464   HW2  13.7500  21.6700  19.7900 H     1   SOL   0.4170
4465    OW   6.9500  38.9500  51.8200 O     1   SOL  -0.8340
4466   HW1   7.2800  38.1300  52.2100 H     1   SOL   0.4170
4467   HW2   6.1400  39.1300  52.2900 H     1   SOL   0.4170
4468    OW  36.2700  35.7800  32.8800 O     1   SOL  -0.8340
4469   HW1  36.4800  34.9100  33.2200 H     1   SOL   0.4170
4470   HW2  36.7800  36.3800  33.4200 H     1   SOL   0.4170
4471    OW  29.5800   7.4400  39.1800 O     1   SOL  -0.8340
4472   HW1  28.9300   7.5100  38.4800 H     1   SOL   0.4170
4473   HW2  29.3800   6.6100  39.6100 H     1   SOL   0.4170
4474    OW   2.2600  12.0000  40.3800 O     1   SOL  -0.8340
4475   HW1   1.8700  11.5400  41.1300 H     1   SOL   0.4170
4476   HW2   3.0400  12.4200  40.7400 H     1   SOL   0.4170
4477    OW  41.6900  17.9100  60.9500 O     1   SOL  -0.8340
4478   HW1  41.5700  17.1600  60.3800 H     1   SOL   0.4170
4479   HW2  40.9600  17.8600  61.5700 H     1   SOL   0.4170
4480    OW   2.0000   4.0100  48.7500 O     1   SOL  -0.8340
4481   HW1   1.5600   4.7000  49.2600 H     1   SOL   0.4170
4482   HW2   2.9300   4.2500  48.7900 H     1   SOL   0.4170
4483    OW   8.3300   5.3700  43.3300 O     1   SOL  -0.8340
4484   HW1   8.9600   4.6600  43.1900 H     1   SOL   0.4170
4485   HW2   8.8400   6.1700  43.2000 H     1   SOL   0.4170
4486    OW   7.0700  22.8700  46.0600 O     1   SOL  -0.8340
4487   HW1   7.8200  22.5300  45.5800 H     1   SOL   0.4170
4488   HW2   6.6600  23.5000  45.4600 H     1   SOL   0.4170
4489    OW  24.8900  42.3100  41.0400 O     1   SOL  -0.8340
4490   HW1  25.2800  42.9300  41.6700 H     1   SOL   0.4170
4491   HW2  25.5700  41.6500  40.9200 H     1   SOL   0.4170
4492    OW  10.5300  18.7600  26.8100 O     1   SOL  -0.8340
4493   HW1  10.2000  18.7100  25.9100 H     1   SOL   0.4170
4494   HW2  10.8800  19.6500  26.8700 H     1   SOL   0.4170
4495    OW   1.6700   7.3400  42.5400 O     1   SOL  -0.8340
4496   HW1   1.5200   8.0400  43.1800 H     1   SOL   0.4170
4497   HW2   1.3400   7.7100  41.7200 H     1   SOL   0.4170
4498    OW  40.1700   2.1000  53.9200 O     1   SOL  -0.8340
4499   HW1  40.8000   1.7100  53.3200 H     1   SOL   0.4170
4500   HW2  39.8200   2.8600  53.4400 H     1   SOL   0.4170
4501    OW  10.5600  23.4400  55.7900 O     1   SOL  -0.8340
4502   HW1   9.6200  23.6400  55.7500 H     1   SOL   0.4170
4503   HW2  10.6100  22.6600  56.3400 H     1   SOL   0.4170
4504    OW  19.6800   9.6000  54.6300 O     1   SOL  -0.8340
4505   HW1  19.0500  10.2100  54.2500 H     1   SOL   0.4170
4506   HW2  19.1900   9.1400  55.3200 H     1   SOL   0.4170
4507    OW   6.3600  10.5000  58.0500 O     1   SOL  -0.8340
4508   HW1   6.9300  11.2500  58.2200 H     1   SOL   0.4170
4509   HW2   5.9100  10.3600  58.8800 H     1   SOL   0.4170
4510    OW   2.5700  14.3500  60.3200 O     1   SOL  -0.8340
4511   HW1   2.0400  15.1400  60.1900 H     1   SOL   0.4170
4512   HW2   3.0900  14.2700  59.5200 H     1   SOL   0.4170
4513    OW   2.1600  20.9900  37.4700 O     1   SOL  -0.8340
4514   HW1   2.6100  20.9900  36.6300 H     1   SOL   0.4170
4515   HW2   1.2300  21.0200  37.2400 H     1   SOL   0.4170
4516    OW  41.5500  23.7800  49.4600 O     1   SOL  -0.8340
4517   HW1  41.1200  23.2500  50.1300 H     1   SOL   0.4170
4518   HW2  40.8400  24.0900  48.9100 H     1   SOL   0.4170
4519    OW  19.2000  15.2600  49.6200 O     1   SOL  -0.8340
4520   HW1  19.5000  15.7100  48.8400 H     1   SOL   0.4170
4521   HW2  19.5100  15.8000  50.3500 H     1   SOL   0.4170
4522    OW   3.6400  16.5000  49.7900 O     1   SOL  -0.8340
4523   HW1   3.2900  17.1700  49.2000 H     1   SOL   0.4170
4524   HW2   4.2600  16.9700  50.3500 H     1   SOL   0.4170
4525    OW   0.1400  31.1900  55.1500 O     1   SOL  -0.8340
4526   HW1   0.6300  30.5500  55.6600 H     1   SOL   0.4170
4527   HW2  -0.0500  30.7500  54.3300 H     1   SOL   0.4170
4528    OW   5.7100   7.4300  59.7300 O     1   SOL  -0.8340
4529   HW1   5.2200   7.6100  58.9400 H     1   SOL   0.4170
4530   HW2   5.0500   7.3200  60.4100 H     1   SOL   0.4170
4531    OW  20.4100  11.0900  41.0900 O     1   SOL  -0.8340
4532   HW1  20.6400  11.5100  41.9200 H     1   SOL   0.4170
4533   HW2  19.5000  10.7900  41.2100 H     1   SOL   0.4170
4534    OW   8.8300  31.1900  61.4000 O     1   SOL  -0.8340
4535   HW1   8.5300  30.8000  60.5700 H     1   SOL   0.4170
4536   HW2   9.6900  30.8000  61.5500 H     1   SOL   0.4170
4537    OW  18.9500  13.3600  56.5300 O     1   SOL  -0.8340
4538   HW1  18.5700  12.7800  57.1800 H     1   SOL   0.4170
4539   HW2  19.8900  13.1800  56.5600 H     1   SOL   0.4170
4540    OW   4.2200  28.0400  64.3000 O     1   SOL  -0.8340
4541   HW1   4.2900  28.1600  63.3600 H     1   SOL   0.4170
4542   HW2   5.1100  27.8500  64.5900 H     1   SOL   0.4170
4543    OW  37.3600  23.6200  68.5500 O     1   SOL  -0.8340
4544   HW1  37.5900  24.4200  69.0300 H     1   SOL   0.4170
4545   HW2  38.0600  23.0100  68.7500 H     1   SOL   0.4170
4546    OW   1.5100  38.9300  63.3600 O     1   SOL  -0.8340
4547   HW1   0.7800  38.9900  63.9700 H     1   SOL   0.4170
4548   HW2   1.6800  37.9900  63.2700 H     1   SOL   0.4170
4549    OW   9.1400   1.3300  50.9000 O     1   SOL  -0.8340
4550   HW1   9.3500   0.8500  50.1000 H     1   SOL   0.4170
4551   HW2   9.9000   1.9000  51.0500 H     1   SOL   0.4170
4552    OW   9.0400   7.2500  48.9700 O     1   SOL  -0.8340
4553   HW1   8.1400   7.0800  48.6900 H     1   SOL   0.4170
4554   HW2   9.4400   7.7000  48.2300 H     1   SOL   0.4170
4555    OW   4.7400   9.9300  35.5000 O     1   SOL  -0.8340
4556   HW1   4.3300   9.7100  36.3300 H     1   SOL   0.4170
4557   HW2   5.2900  10.6900  35.7000 H     1   SOL   0.4170
4558    OW   3.8800   5.9500  46.7700 O     1   SOL  -0.8340
4559   HW1   3.7900   5.6800  45.8600 H     1   SOL   0.4170
4560   HW2   3.5500   6.8500  46.7900 H     1   SOL   0.4170
4561    OW   2.7100  19.4500  64.7600 O     1   SOL  -0.8340
4562   HW1   3.1500  19.2400  63.9300 H     1   SOL   0.4170
4563   HW2   3.2400  19.0200  65.4300 H     1   SOL   0.4170
4564    OW  38.2000  28.8300  60.7600 O     1   SOL  -0.8340
4565   HW1  38.7800  29.5000  60.4100 H     1   SOL   0.4170
4566   HW2  38.4900  28.0200  60.3400 H     1   SOL   0.4170
4567    OW  21.1400  20.7200  54.5500 O     1   SOL  -0.8340
4568   HW1  20.2300  20.4300  54.5500 H     1   SOL   0.4170
4569   HW2  21.1000  21.6200  54.8800 H     1   SOL   0.4170
4570    OW   6.7500   2.7700  51.6200 O     1   SOL  -0.8340
4571   HW1   7.5300   2.2600  51.3900 H     1   SOL   0.4170
4572   HW2   6.7500   3.4900  50.9900 H     1   SOL   0.4170
4573    OW  16.6900  10.9200  68.0300 O     1   SOL  -0.8340
4574   HW1  16.4200  10.0200  68.1800 H     1   SOL   0.4170
4575   HW2  16.4500  11.3800  68.8300 H     1   SOL   0.4170
4576    OW   1.3100  21.2700  68.7100 O     1   SOL  -0.8340
4577   HW1   2.1600  21.6500  68.5200 H     1   SOL   0.4170
4578   HW2   0.8300  21.3200  67.8800 H     1   SOL   0.4170
4579    OW   7.1300  31.7600  70.4400 O     1   SOL  -0.8340
4580   HW1   7.1700  31.1000  69.7400 H     1   SOL   0.4170
4581   HW2   7.7300  31.4400  71.1100 H     1   SOL   0.4170
4582    OW  16.4000  16.4700  25.2700 O     1   SOL  -0.8340
4583   HW1  16.3300  16.5100  26.2200 H     1   SOL   0.4170
4584   HW2  17.2000  16.9500  25.0700 H     1   SOL   0.4170
4585    OW  38.5000  19.3200  53.2600 O     1   SOL  -0.8340
4586   HW1  38.2500  18.7500  52.5300 H     1   SOL   0.4170
4587   HW2  39.4100  19.5400  53.0900 H     1   SOL   0.4170
4588    OW  39.9800  30.9100  63.4600 O     1   SOL  -0.8340
4589   HW1  40.2300  31.2900  62.6300 H     1   SOL   0.4170
4590   HW2  39.5300  31.6100  63.9300 H     1   SOL   0.4170
4591    OW   6.8400  16.0900  57.6400 O     1   SOL  -0.8340
4592   HW1   7.4600  16.5900  58.1700 H     1   SOL   0.4170
4593   HW2   6.7800  16.5600  56.8100 H     1   SOL   0.4170
4594    OW  10.5300  37.9000  53.4400 O     1   SOL  -0.8340
4595   HW1  10.4700  38.6200  52.8200 H     1   SOL   0.4170
4596   HW2   9.8200  38.0600  54.0600 H     1   SOL   0.4170
4597    OW  41.9800  10.7800  27.9900 O     1   SOL  -0.8340
4598   HW1  41.4300  11.1000  28.7000 H     1   SOL   0.4170
4599   HW2  42.4700  11.5500  27.6900 H     1   SOL   0.4170
4600    OW  34.3200  26.0800  57.3300 O     1   SOL  -0.8340
4601   HW1  35.0400  26.4800  57.8000 H     1   SOL   0.4170
4602   HW2  34.7100  25.7500  56.5200 H     1   SOL   0.4170
4603    OW  35.0800  37.1200  49.9000 O     1   SOL  -0.8340
4604   HW1  35.3600  36.9300  49.0000 H     1   SOL   0.4170
4605   HW2  35.8900  37.1400  50.4100 H     1   SOL   0.4170
4606    OW  36.3300   5.5700  61.5700 O     1   SOL  -0.8340
4607   HW1  35.5200   6.0600  61.4000 H     1   SOL   0.4170
4608   HW2  36.0300   4.6900  61.7800 H     1   SOL   0.4170
4609    OW   2.9700   6.9900  33.5000 O     1   SOL  -0.8340
4610   HW1   2.0900   7.1900  33.8100 H     1   SOL   0.4170
4611   HW2   3.3100   7.8200  33.1700 H     1   SOL   0.4170
4612    OW  10.3900  14.9700  42.5800 O     1   SOL  -0.8340
4613   HW1  10.4300  14.6700  43.4900 H     1   SOL   0.4170
4614   HW2  10.2200  14.1700  42.0800 H     1   SOL   0.4170
4615    OW   0.0100  37.0100  52.2500 O     1   SOL  -0.8340
4616   HW1  -0.4400  36.8600  53.0800 H     1   SOL   0.4170
4617   HW2  -0.6300  37.4900  51.7100 H     1   SOL   0.4170
4618    OW  42.6900  32.1200  64.7800 O     1   SOL  -0.8340
4619   HW1  42.0100  32.5400  64.2600 H     1   SOL   0.4170
4620   HW2  43.4100  31.9900  64.1600 H     1   SOL   0.4170
4621    OW   7.2400   0.6500  45.8500 O     1   SOL  -0.8340
4622   HW1   6.3200   0.4200  45.7900 H     1   SOL   0.4170
4623   HW2   7.4500   1.0100  44.9800 H     1   SOL   0.4170
4624    OW   5.2200  43.0800  32.8200 O     1   SOL  -0.8340
4625   HW1   5.6800  43.4600  33.5700 H     1   SOL   0.4170
4626   HW2   4.6800  43.8000  32.4900 H     1   SOL   0.4170
4627    OW   0.4600  20.7000  66.0700 O     1   SOL  -0.8340
4628   HW1   1.0700  20.0200  65.7600 H     1   SOL   0.4170
4629   HW2   0.5500  21.4000  65.4200 H     1   SOL   0.4170
4630    OW  15.7800  22.8000  56.8700 O     1   SOL  -0.8340
4631   HW1  15.4100  23.6100  56.5200 H     1   SOL   0.4170
4632   HW2  16.2700  22.4300  56.1400 H     1   SOL   0.4170
4633    OW  38.2900   6.1400  35.0200 O     1   SOL  -0.8340
4634   HW1  38.6100   5.4300  35.5800 H     1   SOL   0.4170
4635   HW2  38.6500   5.9500  34.1600 H     1   SOL   0.4170
4636    OW  25.3100  31.3300  60.1800 O     1   SOL  -0.8340
4637   HW1  24.8100  31.0800  59.4100 H     1   SOL   0.4170
4638   HW2  24.6600  31.3300  60.8900 H     1   SOL   0.4170
4639    OW  11.8100   2.7800  62.3900 O     1   SOL  -0.8340
4640   HW1  10.9500   2.9700  62.7800 H     1   SOL   0.4170
4641   HW2  12.3700   3.5000  62.7000 H     1   SOL   0.4170
4642    OW  10.9300  23.5200  59.8700 O     1   SOL  -0.8340
4643   HW1  10.9200  22.6200  60.2100 H     1   SOL   0.4170
4644   HW2  10.8700  24.0700  60.6400 H     1   SOL   0.4170
4645    OW   9.5200  30.4500  48.2600 O     1   SOL  -0.8340
4646   HW1   9.2000  30.3700  47.3600 H     1   SOL   0.4170
4647   HW2  10.2400  29.8200  48.3200 H     1   SOL   0.4170
4648    OW  11.7600  40.9800  38.7700 O     1   SOL  -0.8340
4649   HW1  11.5300  40.1700  38.3200 H     1   SOL   0.4170
4650   HW2  11.6300  40.7800  39.7000 H     1   SOL   0.4170
4651    OW  30.5700  18.3100  56.9200 O     1   SOL  -0.8340
4652   HW1  30.0800  18.6300  57.6800 H     1   SOL   0.4170
4653   HW2  31.4100  18.7600  56.9700 H     1   SOL   0.4170
4654    OW   5.9600  42.0600  73.8300 O     1   SOL  -0.8340
4655   HW1   6.8900  41.8800  73.9600 H     1   SOL   0.4170
4656   HW2   5.9000  43.0100  73.8300 H     1   SOL   0.4170
4657    OW   0.5100  21.9500  48.7700 O     1   SOL  -0.8340
4658   HW1  -0.1400  22.6400  48.6300 H     1   SOL   0.4170
4659   HW2   0.0100  21.1400  48.7900 H     1   SOL   0.4170
4660    OW  33.3800  29.3600  46.4200 O     1   SOL  -0.8340
4661   HW1  32.6300  29.5100  45.8400 H     1   SOL   0.4170
4662   HW2  33.0000  28.9300  47.1900 H     1   SOL   0.4170
4663    OW   1.0800   8.2200  39.8900 O     1   SOL  -0.8340
4664   HW1   1.7600   8.6700  39.4000 H     1   SOL   0.4170
4665   HW2   1.1600   7.3000  39.6300 H     1   SOL   0.4170
4666    OW  38.3900   2.5200  48.7300 O     1   SOL  -0.8340
4667   HW1  38.6500   1.6800  48.3400 H     1   SOL   0.4170
4668   HW2  37.5400   2.3500  49.1400 H     1   SOL   0.4170
4669    OW  26.4500  26.3500  27.4900 O     1   SOL  -0.8340
4670   HW1  26.6100  26.2800  26.5500 H     1   SOL   0.4170
4671   HW2  26.9600  25.6400  27.8800 H     1   SOL   0.4170
4672    OW  14.4500   7.3200  43.8800 O     1   SOL  -0.8340
4673   HW1  13.5600   7.5800  44.1000 H     1   SOL   0.4170
4674   HW2  14.3500   6.7800  43.0900 H     1   SOL   0.4170
4675    OW  14.4400   6.1100  41.3600 O     1   SOL  -0.8340
4676   HW1  13.9900   6.1200  40.5100 H     1   SOL   0.4170
4677   HW2  14.5600   5.1800  41.5500 H     1   SOL   0.4170
4678    OW  31.7400   7.0600  64.9000 O     1   SOL  -0.8340
4679   HW1  31.0400   6.6600  64.3800 H     1   SOL   0.4170
4680   HW2  31.7800   6.5400  65.7000 H     1   SOL   0.4170
4681    OW  20.3700  17.7500  56.9400 O     1   SOL  -0.8340
4682   HW1  20.6700  18.6200  57.1900 H     1   SOL   0.4170
4683   HW2  21.1000  17.3900  56.4400 H     1   SOL   0.4170
4684    OW  10.4200  42.5100  65.7600 O     1   SOL  -0.8340
4685   HW1  10.1300  42.4600  64.8500 H     1   SOL   0.4170
4686   HW2  10.4300  43.4500  65.9600 H     1   SOL   0.4170
4687    OW   9.6400  11.1400  58.4600 O     1   SOL  -0.8340
4688   HW1  10.5800  11.2900  58.5400 H     1   SOL   0.4170
4689   HW2   9.4600  10.3700  58.9900 H     1   SOL   0.4170
4690    OW  20.4700  41.8000  52.0900 O     1   SOL  -0.8340
4691   HW1  19.7200  42.3700  52.2900 H     1   SOL   0.4170
4692   HW2  20.3600  41.6000  51.1600 H     1   SOL   0.4170
4693    OW  42.2000  20.6300  61.5900 O     1   SOL  -0.8340
4694   HW1  41.7500  19.9200  61.1400 H     1   SOL   0.4170
4695   HW2  42.8200  20.9600  60.9400 H     1   SOL   0.4170
4696    OW  15.0400  26.2000  41.2400 O     1   SOL  -0.8340
4697   HW1  15.5200  27.0100  41.4100 H     1   SOL   0.4170
4698   HW2  15.3800  25.5700  41.8800 H     1   SOL   0.4170
4699    OW   1.1500  27.6800  51.8100 O     1   SOL  -0.8340
4700   HW1   0.4400  27.0500  51.7000 H     1   SOL   0.4170
4701   HW2   1.4100  27.6000  52.7300 H     1   SOL   0.4170
4702    OW   4.2400  16.1400  57.6500 O     1   SOL  -0.8340
4703   HW1   5.1900  16.0400  57.5700 H     1   SOL   0.4170
4704   HW2   4.1200  16.6200  58.4700 H     1   SOL   0.4170
4705    OW  40.7500  31.7800  45.2200 O     1   SOL  -0.8340
4706   HW1  39.8000  31.8100  45.2600 H     1   SOL   0.4170
4707   HW2  40.9700  30.8900  45.5000 H     1   SOL   0.4170
4708    OW  19.4000  18.3200  33.2400 O     1   SOL  -0.8340
4709   HW1  20.1300  18.4700  32.6300 H     1   SOL   0.4170
4710   HW2  18.8800  19.1200  33.1800 H     1   SOL   0.4170
4711    OW  39.7300  12.9100  71.4600 O     1   SOL  -0.8340
4712   HW1  39.6800  13.6600  72.0500 H     1   SOL   0.4170
4713   HW2  39.1900  12.2400  71.8800 H     1   SOL   0.4170
4714    OW  38.8900   2.0100  56.3900 O     1   SOL  -0.8340
4715   HW1  39.3600   2.0400  55.5600 H     1   SOL   0.4170
4716   HW2  38.8900   2.9200  56.6900 H     1   SOL   0.4170
4717    OW  41.2700  36.0500  64.0700 O     1   SOL  -0.8340
4718   HW1  40.5200  36.3400  64.5900 H     1   SOL   0.4170
4719   HW2  41.0000  36.1900  63.1700 H     1   SOL   0.4170
4720    OW  24.4200   4.3300  55.3100 O     1   SOL  -0.8340
4721   HW1  23.5100   4.1400  55.5400 H     1   SOL   0.4170
4722   HW2  24.4600   4.1700  54.3700 H     1   SOL   0.4170
4723    OW   7.4900  40.7300  34.4800 O     1   SOL  -0.8340
4724   HW1   8.3700  40.5100  34.1600 H     1   SOL   0.4170
4725   HW2   7.5300  41.6700  34.6700 H     1   SOL   0.4170
4726    OW   6.5700  11.0700  50.6300 O     1   SOL  -0.8340
4727   HW1   5.6900  11.2600  50.3100 H     1   SOL   0.4170
4728   HW2   6.6500  11.6000  51.4300 H     1   SOL   0.4170
4729    OW  21.1700   4.0300  55.5700 O     1   SOL  -0.8340
4730   HW1  20.7300   4.8500  55.3500 H     1   SOL   0.4170
4731   HW2  21.1200   3.5100  54.7700 H     1   SOL   0.4170
4732    OW  16.5600  24.1300  61.8100 O     1   SOL  -0.8340
4733   HW1  17.0100  24.2200  60.9600 H     1   SOL   0.4170
4734   HW2  15.6300  24.1400  61.5800 H     1   SOL   0.4170
4735    OW  40.0000  37.1200  46.1600 O     1   SOL  -0.8340
4736   HW1  39.1700  36.9400  45.7200 H     1   SOL   0.4170
4737   HW2  40.6700  36.8200  45.5500 H     1   SOL   0.4170
4738    OW  13.9500   2.8000  43.7900 O     1   SOL  -0.8340
4739   HW1  14.3000   2.9400  42.9100 H     1   SOL   0.4170
4740   HW2  13.2400   2.1700  43.6600 H     1   SOL   0.4170
4741    OW  22.8400  23.8100  55.6800 O     1   SOL  -0.8340
4742   HW1  23.2000  24.1900  56.4800 H     1   SOL   0.4170
4743   HW2  23.5100  23.9900  55.0100 H     1   SOL   0.4170
4744    OW  13.8500  29.8500  58.2000 O     1   SOL  -0.8340
4745   HW1  14.0100  29.3800  57.3800 H     1   SOL   0.4170
4746   HW2  14.2000  30.7200  58.0500 H     1   SOL   0.4170
4747    OW  20.8600   4.5700  58.4300 O     1   SOL  -0.8340
4748   HW1  19.9600   4.2900  58.5300 H     1   SOL   0.4170
4749   HW2  21.1600   4.1400  57.6300 H     1   SOL   0.4170
4750    OW  23.1900  15.9600  49.8500 O     1   SOL  -0.8340
4751   HW1  23.4900  15.6600  48.9900 H     1   SOL   0.4170
4752   HW2  23.2000  15.1700  50.3900 H     1   SOL   0.4170
4753    OW  24.0700  23.6500  50.7800 O     1   SOL  -0.8340
4754   HW1  24.1000  23.9600  51.6900 H     1   SOL   0.4170
4755   HW2  24.9700  23.4300  50.5700 H     1   SOL   0.4170
4756    OW  29.4000   6.0900  63.5200 O     1   SOL  -0.8340
4757   HW1  28.5100   6.3000  63.8200 H     1   SOL   0.4170
4758   HW2  29.3200   5.2100  63.1500 H     1   SOL   0.4170
4759    OW  38.8500  34.6300  57.8300 O     1   SOL  -0.8340
4760   HW1  38.6800  34.6100  58.7700 H     1   SOL   0.4170
4761   HW2  37.9800  34.6900  57.4300 H     1   SOL   0.4170
4762    OW  15.6400   5.2800  35.0700 O     1   SOL  -0.8340
4763   HW1  16.5900   5.2900  35.0900 H     1   SOL   0.4170
4764   HW2  15.4100   4.4000  34.7600 H     1   SOL   0.4170
4765    OW   8.6600   1.5500  48.0700 O     1   SOL  -0.8340
4766   HW1   9.3900   0.9600  48.2200 H     1   SOL   0.4170
4767   HW2   8.3300   1.3300  47.2000 H     1   SOL   0.4170
4768    OW  11.9200   0.1500  50.8700 O     1   SOL  -0.8340
4769   HW1  11.8300   1.0600  51.1400 H     1   SOL   0.4170
4770   HW2  12.7200  -0.1500  51.3000 H     1   SOL   0.4170
4771    OW   8.8000  25.9000  53.4400 O     1   SOL  -0.8340
4772   HW1   9.4900  26.5600  53.5600 H     1   SOL   0.4170
4773   HW2   8.6100  25.9400  52.5000 H     1   SOL   0.4170
4774    OW  13.2500  14.2600  50.6100 O     1   SOL  -0.8340
4775   HW1  12.4800  13.7000  50.6200 H     1   SOL   0.4170
4776   HW2  13.8900  13.7900  51.1500 H     1   SOL   0.4170
4777    OW   0.9100   1.3400  46.0700 O     1   SOL  -0.8340
4778   HW1   0.0200   1.3100  46.4200 H     1   SOL   0.4170
4779   HW2   1.4800   1.2800  46.8400 H     1   SOL   0.4170
4780    OW   6.9100  35.5000  38.4700 O     1   SOL  -0.8340
4781   HW1   7.0200  36.1000  39.2000 H     1   SOL   0.4170
4782   HW2   7.4400  34.7400  38.7000 H     1   SOL   0.4170
4783    OW  36.5900  10.0000  28.8100 O     1   SOL  -0.8340
4784   HW1  36.6200   9.0400  28.7400 H     1   SOL   0.4170
4785   HW2  37.0300  10.1900  29.6400 H     1   SOL   0.4170
4786    OW   8.7100  19.4000  37.7800 O     1   SOL  -0.8340
4787   HW1   9.0100  18.5600  37.4300 H     1   SOL   0.4170
4788   HW2   8.3100  19.1800  38.6200 H     1   SOL   0.4170
4789    OW   2.9600  30.1800  59.3000 O     1   SOL  -0.8340
4790   HW1   2.3600  30.0400  58.5700 H     1   SOL   0.4170
4791   HW2   2.6700  29.5700  59.9700 H     1   SOL   0.4170
4792    OW   2.7900  17.6900  69.4300 O     1   SOL  -0.8340
4793   HW1   2.7600  16.8400  69.8700 H     1   SOL   0.4170
4794   HW2   2.3500  18.2900  70.0300 H     1   SOL   0.4170
4795    OW  28.0300   0.0400  53.6000 O     1   SOL  -0.8340
4796   HW1  28.5500   0.8400  53.5100 H     1   SOL   0.4170
4797   HW2  28.4100  -0.5700  52.9800 H     1   SOL   0.4170
4798    OW  23.8700  25.5600  68.8800 O     1   SOL  -0.8340
4799   HW1  24.1900  26.0300  69.6500 H     1   SOL   0.4170
4800   HW2  23.1400  26.0900  68.5600 H     1   SOL   0.4170
4801    OW  21.4900  23.6000  67.9400 O     1   SOL  -0.8340
4802   HW1  22.1400  24.2500  68.2100 H     1   SOL   0.4170
4803   HW2  20.6700  23.9000  68.3300 H     1   SOL   0.4170
4804    OW  12.7900  13.7600  60.2700 O     1   SOL  -0.8340
4805   HW1  13.0200  14.5400  59.7700 H     1   SOL   0.4170
4806   HW2  11.9600  13.9900  60.7100 H     1   SOL   0.4170
4807    OW  23.7400  13.8000  60.7300 O     1   SOL  -0.8340
4808   HW1  24.3200  14.2600  60.1200 H     1   SOL   0.4170
4809   HW2  22.8700  13.8800  60.3500 H     1   SOL   0.4170
4810    OW   4.3000  12.3200  70.6200 O     1   SOL  -0.8340
4811   HW1   4.5200  12.8100  69.8300 H     1   SOL   0.4170
4812   HW2   4.0400  12.9900  71.2600 H     1   SOL   0.4170
4813    OW   9.2400  13.8100  76.4400 O     1   SOL  -0.8340
4814   HW1   9.7000  14.6400  76.3100 H     1   SOL   0.4170
4815   HW2   9.1500  13.4400  75.5600 H     1   SOL   0.4170
4816    OW  36.3400  33.5800  67.4300 O     1   SOL  -0.8340
4817   HW1  35.9100  33.3600  68.2600 H     1   SOL   0.4170
4818   HW2  36.0000  32.9400  66.8100 H     1   SOL   0.4170
4819    OW  12.3600  22.2000  72.1200 O     1   SOL  -0.8340
4820   HW1  12.6600  21.4500  72.6300 H     1   SOL   0.4170
4821   HW2  11.7000  22.6200  72.6700 H     1   SOL   0.4170
4822    OW   0.9100  17.4000  74.5600 O     1   SOL  -0.8340
4823   HW1   1.0000  17.9600  75.3300 H     1   SOL   0.4170
4824   HW2   1.4500  16.6300  74.7500 H     1   SOL   0.4170
4825    OW   5.9100  37.0400  73.9800 O     1   SOL  -0.8340
4826   HW1   5.2200  37.7000  73.9900 H     1   SOL   0.4170
4827   HW2   5.4600  36.2100  73.8600 H     1   SOL   0.4170
4828    OW  39.2700  21.4600  69.3000 O     1   SOL  -0.8340
4829   HW1  39.0100  20.6700  68.8200 H     1   SOL   0.4170
4830   HW2  40.0000  21.1700  69.8500 H     1   SOL   0.4170
4831    OW   7.3000  13.3100  57.8300 O     1   SOL  -0.8340
4832   HW1   8.2300  13.1700  57.6300 H     1   SOL   0.4170
4833   HW2   7.2300  14.2600  57.9300 H     1   SOL   0.4170
4834    OW   5.6900  13.1800  74.1800 O     1   SOL  -0.8340
4835   HW1   4.9800  12.5400  74.2100 H     1   SOL   0.4170
4836   HW2   5.3200  13.9800  74.5600 H     1   SOL   0.4170
4837    OW  36.5900  22.7100  73.5800 O     1   SOL  -0.8340
4838   HW1  37.2200  22.1300  74.0000 H     1   SOL   0.4170
4839   HW2  35.8300  22.1500  73.4000 H     1   SOL   0.4170
4840    OW  39.1100  42.2800  49.5400 O     1   SOL  -0.8340
4841   HW1  38.7300  42.3000  50.4200 H     1   SOL   0.4170
4842   HW2  40.0100  42.0000  49.6800 H     1   SOL   0.4170
4843    OW  24.3300   0.9900  67.9500 O     1   SOL  -0.8340
4844   HW1  25.2700   1.1200  67.7700 H     1   SOL   0.4170
4845   HW2  24.1500   1.5400  68.7100 H     1   SOL   0.4170
4846    OW   8.1300  24.8300  55.6400 O     1   SOL  -0.8340
4847   HW1   7.1900  24.9200  55.5400 H     1   SOL   0.4170
4848   HW2   8.5000  25.2900  54.8800 H     1   SOL   0.4170
4849    OW  25.0400  15.7800  59.2500 O     1   SOL  -0.8340
4850   HW1  25.4300  16.3900  58.6200 H     1   SOL   0.4170
4851   HW2  25.1600  16.2200  60.1000 H     1   SOL   0.4170
4852    OW  38.7500  32.9200  76.4400 O     1   SOL  -0.8340
4853   HW1  39.2600  33.4400  75.8200 H     1   SOL   0.4170
4854   HW2  39.2300  33.0100  77.2700 H     1   SOL   0.4170
4855    OW  41.2600   6.1700  61.3600 O     1   SOL  -0.8340
4856   HW1  40.4400   5.8400  60.9800 H     1   SOL   0.4170
4857   HW2  41.6900   6.6300  60.6500 H     1   SOL   0.4170
4858    OW   2.9400  15.1700  65.9300 O     1   SOL  -0.8340
4859   HW1   2.9700  15.0500  64.9900 H     1   SOL   0.4170
4860   HW2   2.0800  15.5700  66.0900 H     1   SOL   0.4170
4861    OW  13.7500  13.9600  66.3700 O     1   SOL  -0.8340
4862   HW1  13.4500  13.8400  67.2800 H     1   SOL   0.4170
4863   HW2  13.7500  14.9100  66.2600 H     1   SOL   0.4170
4864    OW  16.9900  18.0600  37.6100 O     1   SOL  -0.8340
4865   HW1  16.1900  18.2200  37.1000 H     1   SOL   0.4170
4866   HW2  16.7600  18.3100  38.5000 H     1   SOL   0.4170
4867    OW  22.4600  22.3000  74.5000 O     1   SOL  -0.8340
4868   HW1  23.0000  21.6300  74.9100 H     1   SOL   0.4170
4869   HW2  22.6100  22.2000  73.5600 H     1   SOL   0.4170
4870    OW  41.8500   5.8300  72.6300 O     1   SOL  -0.8340
4871   HW1  41.5000   5.2600  73.3100 H     1   SOL   0.4170
4872   HW2  42.7400   6.0200  72.9000 H     1   SOL   0.4170
4873    OW  26.8000  10.0000  69.7700 O     1   SOL  -0.8340
4874   HW1  25.9500  10.2700  70.1300 H     1   SOL   0.4170
4875   HW2  26.8000  10.3300  68.8700 H     1   SOL   0.4170
4876    OW  14.8300   6.5000  55.3000 O     1   SOL  -0.8340
4877   HW1  15.7500   6.2100  55.3400 H     1   SOL   0.4170
4878   HW2  14.6300   6.7600  56.2000 H     1   SOL   0.4170
4879    OW   9.4600  37.2300  64.4400 O     1   SOL  -0.8340
4880   HW1   9.9300  36.3900  64.3500 H     1   SOL   0.4170
4881   HW2   8.5400  36.9800  64.5200 H     1   SOL   0.4170
4882    OW  16.9200  10.6000  65.3700 O     1   SOL  -0.8340
4883   HW1  16.8500  10.7500  66.3100 H     1   SOL   0.4170
4884   HW2  16.1600  11.0600  65.0000 H     1   SOL   0.4170
4885    OW  34.2100  26.4500  52.2600 O     1   SOL  -0.8340
4886   HW1  33.6400  26.2500  51.5200 H     1   SOL   0.4170
4887   HW2  34.4100  27.3800  52.1700 H     1   SOL   0.4170
4888    OW  13.8500  39.5900  65.9300 O     1   SOL  -0.8340
4889   HW1  13.0700  39.3100  65.4600 H     1   SOL   0.4170
4890   HW2  14.3900  38.8000  65.9800 H     1   SOL   0.4170
4891    OW  26.1300  11.1800  61.7000 O     1   SOL  -0.8340
4892   HW1  26.0600  12.0600  62.0800 H     1   SOL   0.4170
4893   HW2  26.7700  11.2800  61.0000 H     1   SOL   0.4170
4894    OW  37.9600   9.2600  69.9300 O     1   SOL  -0.8340
4895   HW1  37.3900   8.5200  70.1500 H     1   SOL   0.4170
4896   HW2  38.4700   8.9500  69.1800 H     1   SOL   0.4170
4897    OW  20.9800   2.3000  74.3800 O     1   SOL  -0.8340
4898   HW1  20.6000   3.1600  74.5300 H     1   SOL   0.4170
4899   HW2  20.2300   1.7100  74.2800 H     1   SOL   0.4170
4900    OW  24.2200   8.0400  48.4000 O     1   SOL  -0.8340
4901   HW1  24.1500   7.4600  47.6400 H     1   SOL   0.4170
4902   HW2  24.9100   7.6400  48.9400 H     1   SOL   0.4170
4903    OW  20.4100  21.6500  59.1600 O     1   SOL  -0.8340
4904   HW1  19.7800  21.8600  59.8400 H     1   SOL   0.4170
4905   HW2  20.9800  22.4200  59.1000 H     1   SOL   0.4170
4906    OW  36.0000  19.5300  77.1600 O     1   SOL  -0.8340
4907   HW1  36.9500  19.5900  77.1200 H     1   SOL   0.4170
4908   HW2  35.8200  18.6000  77.3100 H     1   SOL   0.4170
4909    OW   7.3800   0.3600  64.5400 O     1   SOL  -0.8340
4910   HW1   7.6400   1.1100  65.0800 H     1   SOL   0.4170
4911   HW2   6.4400   0.2600  64.7200 H     1   SOL   0.4170
4912    OW  23.8500  10.6100  76.9600 O     1   SOL  -0.8340
4913   HW1  23.4600  10.7000  76.0900 H     1   SOL   0.4170
4914   HW2  23.3200   9.9400  77.3800 H     1   SOL   0.4170
4915    OW   5.0100  10.0100  63.7500 O     1   SOL  -0.8340
4916   HW1   4.4500  10.7700  63.6000 H     1   SOL   0.4170
4917   HW2   4.6900   9.6300  64.5600 H     1   SOL   0.4170
4918    OW  38.4700  25.0500  76.5000 O     1   SOL  -0.8340
4919   HW1  39.3800  25.2000  76.7700 H     1   SOL   0.4170
4920   HW2  38.3900  24.1000  76.4700 H     1   SOL   0.4170
4921    OW  21.2800  10.9300  70.1500 O     1   SOL  -0.8340
4922   HW1  21.5000  11.5800  70.8100 H     1   SOL   0.4170
4923   HW2  20.9200  11.4400  69.4200 H     1   SOL   0.4170
4924    OW   0.6300  15.8400  72.0100 O     1   SOL  -0.8340
4925   HW1   0.2500  15.1200  72.5000 H     1   SOL   0.4170
4926   HW2   1.1600  16.3100  72.6500 H     1   SOL   0.4170
4927    OW  13.4500  41.9200  64.5800 O     1   SOL  -0.8340
4928   HW1  13.6900  41.1200  65.0400 H     1   SOL   0.4170
4929   HW2  12.5000  41.8700  64.4800 H     1   SOL   0.4170
4930    OW   6.8100  12.7900  77.0000 O     1   SOL  -0.8340
4931   HW1   7.6100  13.2700  76.7800 H     1   SOL   0.4170
4932   HW2   6.1400  13.4700  77.0700 H     1   SOL   0.4170
4933    OW   6.9900   6.7700  74.5500 O     1   SOL  -0.8340
4934   HW1   7.0600   5.8100  74.5500 H     1   SOL   0.4170
4935   HW2   6.5200   6.9700  75.3600 H     1   SOL   0.4170
4936    OW   9.1900  21.3500  57.6100 O     1   SOL  -0.8340
4937   HW1   9.4500  20.6300  58.1900 H     1   SOL   0.4170
4938   HW2   8.8800  22.0300  58.2000 H     1   SOL   0.4170
4939    OW  21.8000  36.5600  65.3300 O     1   SOL  -0.8340
4940   HW1  21.0200  37.1300  65.3100 H     1   SOL   0.4170
4941   HW2  22.3300  36.9000  66.0500 H     1   SOL   0.4170
4942    OW  20.2900   6.5700  54.5300 O     1   SOL  -0.8340
4943   HW1  20.1300   7.5000  54.3400 H     1   SOL   0.4170
4944   HW2  21.2400   6.4700  54.4600 H     1   SOL   0.4170
4945    OW  25.7900   8.4700  61.8900 O     1   SOL  -0.8340
4946   HW1  25.7300   9.4300  61.8500 H     1   SOL   0.4170
4947   HW2  25.6000   8.1900  60.9900 H     1   SOL   0.4170
4948    OW   7.4900   2.0300  68.9300 O     1   SOL  -0.8340
4949   HW1   8.3900   1.7800  69.1100 H     1   SOL   0.4170
4950   HW2   7.5300   2.9500  68.6800 H     1   SOL   0.4170
4951    OW  18.0700   5.6900  65.8600 O     1   SOL  -0.8340
4952   HW1  17.7600   6.5100  66.2300 H     1   SOL   0.4170
4953   HW2  18.2900   5.1500  66.6100 H     1   SOL   0.4170
4954    OW  23.2000  14.3400  76.8800 O     1   SOL  -0.8340
4955   HW1  22.9500  15.2500  76.7400 H     1   SOL   0.4170
4956   HW2  22.3700  13.8900  77.0400 H     1   SOL   0.4170
4957    OW  34.8600   8.8200  64.5300 O     1   SOL  -0.8340
4958   HW1  34.6000   8.8600  65.4500 H     1   SOL   0.4170
4959   HW2  34.3600   9.5200  64.1100 H     1   SOL   0.4170
4960    OW  10.6400   8.0500  57.5200 O     1   SOL  -0.8340
4961   HW1   9.8100   8.3400  57.1300 H     1   SOL   0.4170
4962   HW2  10.4600   8.0000  58.4500 H     1   SOL   0.4170
4963    OW  12.8200   6.4700  53.4700 O     1   SOL  -0.8340
4964   HW1  11.9900   6.3500  53.9400 H     1   SOL   0.4170
4965   HW2  13.4000   6.8700  54.1200 H     1   SOL   0.4170
4966    OW   9.7700   6.7800  70.0700 O     1   SOL  -0.8340
4967   HW1  10.1700   6.5600  69.2300 H     1   SOL   0.4170
4968   HW2  10.5100   6.7900  70.6800 H     1   SOL   0.4170
4969    OW  18.8100  33.5900  58.9700 O     1   SOL  -0.8340
4970   HW1  18.8600  33.5900  58.0200 H     1   SOL   0.4170
4971   HW2  17.9200  33.3000  59.1700 H     1   SOL   0.4170
4972    OW  34.5500  38.1500  74.0000 O     1   SOL  -0.8340
4973   HW1  34.5900  38.0100  74.9500 H     1   SOL   0.4170
4974   HW2  34.1700  37.3400  73.6600 H     1   SOL   0.4170
4975    OW  22.7100  14.9400  63.2900 O     1   SOL  -0.8340
4976   HW1  22.5200  14.2800  63.9600 H     1   SOL   0.4170
4977   HW2  22.9000  14.4300  62.5000 H     1   SOL   0.4170
4978    OW  42.9100  13.9400  73.6100 O     1   SOL  -0.8340
4979   HW1  43.4300  13.1500  73.7400 H     1   SOL   0.4170
4980   HW2  42.0400  13.6100  73.3700 H     1   SOL   0.4170
4981    OW   6.9200  19.7500  57.7500 O     1   SOL  -0.8340
4982   HW1   6.3500  19.2600  57.1500 H     1   SOL   0.4170
4983   HW2   7.6500  20.0300  57.2100 H     1   SOL   0.4170
4984    OW   5.5700   7.3100  76.9800 O     1   SOL  -0.8340
4985   HW1   5.0700   8.0900  76.7200 H     1   SOL   0.4170
4986   HW2   4.9000   6.6900  77.2800 H     1   SOL   0.4170
4987    OW  15.8700   2.7100  58.7100 O     1   SOL  -0.8340
4988   HW1  15.9000   1.7500  58.7700 H     1   SOL   0.4170
4989   HW2  15.2500   2.9700  59.3900 H     1   SOL   0.4170
4990    OW  37.3800  16.7000  68.9500 O     1   SOL  -0.8340
4991   HW1  36.4400  16.6100  68.7600 H     1   SOL   0.4170
4992   HW2  37.7500  15.8500  68.7400 H     1   SOL   0.4170
4993    OW  37.8200   9.6900  63.8700 O     1   SOL  -0.8340
4994   HW1  38.4400   9.7800  64.6000 H     1   SOL   0.4170
4995   HW2  37.0900   9.2000  64.2500 H     1   SOL   0.4170
4996    OW  12.0800  15.2300  71.2700 O     1   SOL  -0.8340
4997   HW1  11.5300  14.6200  71.7600 H     1   SOL   0.4170
4998   HW2  11.4800  15.6900  70.7000 H     1   SOL   0.4170
4999    OW   7.1900   1.6200  77.0100 O     1   SOL  -0.8340
5000   HW1   6.7400   2.2800  77.5300 H     1   SOL   0.4170
5001   HW2   8.1200   1.8500  77.0800 H     1   SOL   0.4170
5002    OW  27.1700  39.2800  70.9600 O     1   SOL  -0.8340
5003   HW1  27.8900  38.7000  70.7200 H     1   SOL   0.4170
5004   HW2  26.6400  39.3500  70.1600 H     1   SOL   0.4170
5005    OW  40.3000  22.7200  54.4600 O     1   SOL  -0.8340
5006   HW1  39.6500  23.2400  53.9900 H     1   SOL   0.4170
5007   HW2  40.2600  21.8500  54.0600 H     1   SOL   0.4170
5008    OW  21.5800  33.9300  65.8900 O     1   SOL  -0.8340
5009   HW1  21.7000  34.8800  65.9200 H     1   SOL   0.4170
5010   HW2  21.1800  33.7100  66.7300 H     1   SOL   0.4170
5011    OW  26.6600  19.9400  59.7400 O     1   SOL  -0.8340
5012   HW1  27.1500  20.7300  59.9600 H     1   SOL   0.4170
5013   HW2  27.2600  19.4200  59.2200 H     1   SOL   0.4170
5014    OW  19.8600   3.4000  71.7300 O     1   SOL  -0.8340
5015   HW1  19.9700   4.0400  72.4300 H     1   SOL   0.4170
5016   HW2  20.1800   2.5800  72.1000 H     1   SOL   0.4170
5017    OW  17.8500  26.4000  49.8300 O     1   SOL  -0.8340
5018   HW1  17.2400  25.6900  50.0300 H     1   SOL   0.4170
5019   HW2  18.5600  25.9800  49.3400 H     1   SOL   0.4170
5020    OW  10.5300   4.0300  65.1900 O     1   SOL  -0.8340
5021   HW1  10.3100   4.8500  65.6300 H     1   SOL   0.4170
5022   HW2  11.0200   4.3000  64.4100 H     1   SOL   0.4170
5023    OW  15.8300  23.6100  47.7900 O     1   SOL  -0.8340
5024   HW1  16.7500  23.4900  48.0300 H     1   SOL   0.4170
5025   HW2  15.7100  23.0400  47.0300 H     1   SOL   0.4170
5026    OW  40.5400  41.8300  76.4300 O     1   SOL  -0.8340
5027   HW1  41.1100  42.5500  76.1600 H     1   SOL   0.4170
5028   HW2  39.7400  42.2500  76.7500 H     1   SOL   0.4170
5029    OW  13.7000   7.9200  57.6900 O     1   SOL  -0.8340
5030   HW1  13.8400   7.1500  58.2300 H     1   SOL   0.4170
5031   HW2  12.7600   8.0800  57.7300 H     1   SOL   0.4170
5032    OW  41.2300  12.3000  61.6600 O     1   SOL  -0.8340
5033   HW1  41.0300  11.5000  62.1400 H     1   SOL   0.4170
5034   HW2  41.6200  12.8900  62.3100 H     1   SOL   0.4170
5035    OW  21.4300  17.1400  73.9900 O     1   SOL  -0.8340
5036   HW1  22.0100  17.7100  73.4900 H     1   SOL   0.4170
5037   HW2  20.5700  17.2600  73.5900 H     1   SOL   0.4170
5038    OW  19.9300   4.9100  74.4600 O     1   SOL  -0.8340
5039   HW1  18.9700   4.8400  74.4600 H     1   SOL   0.4170
5040   HW2  20.1100   5.7100  73.9700 H     1   SOL   0.4170
5041    OW  15.0800  10.7100  55.4100 O     1   SOL  -0.8340
5042   HW1  14.3300  10.1200  55.3800 H     1   SOL   0.4170
5043   HW2  15.1800  10.9300  56.3400 H     1   SOL   0.4170
5044    OW   2.6300  15.3700  74.4700 O     1   SOL  -0.8340
5045   HW1   2.7600  15.6000  75.3900 H     1   SOL   0.4170
5046   HW2   2.7600  14.4200  74.4300 H     1   SOL   0.4170
5047    OW   9.0800  10.3800  74.0200 O     1   SOL  -0.8340
5048   HW1   8.8600   9.8500  73.2500 H     1   SOL   0.4170
5049   HW2   9.6600   9.8300  74.5300 H     1   SOL   0.4170
5050    OW   3.4500   3.4200  74.9000 O     1   SOL  -0.8340
5051   HW1   2.8200   3.2400  75.5900 H     1   SOL   0.4170
5052   HW2   3.1100   2.9500  74.1300 H     1   SOL   0.4170
5053    OW  38.9400  15.8900  72.9500 O     1   SOL  -0.8340
5054   HW1  39.5900  16.3400  73.4800 H     1   SOL   0.4170
5055   HW2  38.7200  16.5200  72.2600 H     1   SOL   0.4170
5056    OW   7.8900   4.6700  68.2400 O     1   SOL  -0.8340
5057   HW1   8.8100   4.8800  68.0300 H     1   SOL   0.4170
5058   HW2   7.3800   5.1800  67.6100 H     1   SOL   0.4170
5059    OW  29.7200  20.9500  61.2900 O     1   SOL  -0.8340
5060   HW1  29.5900  21.8600  61.0300 H     1   SOL   0.4170
5061   HW2  30.5700  20.9400  61.7300 H     1   SOL   0.4170
5062    OW  14.7400  21.2200  74.9200 O     1   SOL  -0.8340
5063   HW1  15.4400  20.6000  75.1200 H     1   SOL   0.4170
5064   HW2  14.6100  21.7000  75.7400 H     1   SOL   0.4170
5065    OW   1.1900  12.6000  56.2500 O     1   SOL  -0.8340
5066   HW1   1.6500  11.8500  56.6200 H     1   SOL   0.4170
5067   HW2   1.8400  13.3100  56.2700 H     1   SOL   0.4170
5068    OW   4.7600  42.9000  64.9400 O     1   SOL  -0.8340
5069   HW1   4.3400  42.9700  64.0800 H     1   SOL   0.4170
5070   HW2   4.1200  42.4400  65.4800 H     1   SOL   0.4170
5071    OW  11.6000   1.8500  66.4700 O     1   SOL  -0.8340
5072   HW1  12.4900   1.5500  66.3200 H     1   SOL   0.4170
5073   HW2  11.4600   2.5400  65.8300 H     1   SOL   0.4170
5074    OW  10.6500  39.4000  70.9700 O     1   SOL  -0.8340
5075   HW1   9.8600  39.6600  70.5100 H     1   SOL   0.4170
5076   HW2  11.1300  38.8600  70.3300 H     1   SOL   0.4170
5077    OW  33.4600  34.6800  65.0700 O     1   SOL  -0.8340
5078   HW1  33.8300  33.9000  65.4900 H     1   SOL   0.4170
5079   HW2  32.7200  34.3500  64.5700 H     1   SOL   0.4170
5080    OW   1.3800   6.5600  62.8000 O     1   SOL  -0.8340
5081   HW1   1.1300   5.8200  63.3600 H     1   SOL   0.4170
5082   HW2   0.5600   6.8600  62.4200 H     1   SOL   0.4170
5083    OW  10.4300   5.2400  77.1500 O     1   SOL  -0.8340
5084   HW1   9.6400   4.7300  77.3300 H     1   SOL   0.4170
5085   HW2  10.1400   6.1500  77.1900 H     1   SOL   0.4170
5086    OW  14.3100  11.5100  65.1500 O     1   SOL  -0.8340
5087   HW1  14.1500  12.3600  65.5500 H     1   SOL   0.4170
5088   HW2  13.5200  11.0100  65.3200 H     1   SOL   0.4170
5089    OW  23.6800   9.7200  67.4300 O     1   SOL  -0.8340
5090   HW1  23.7100   8.8700  67.0000 H     1   SOL   0.4170
5091   HW2  24.6000   9.9400  67.6000 H     1   SOL   0.4170
5092    OW  34.7000  22.2700  51.7900 O     1   SOL  -0.8340
5093   HW1  35.2500  21.5800  52.1600 H     1   SOL   0.4170
5094   HW2  34.4200  22.7900  52.5500 H     1   SOL   0.4170
5095    OW  13.6300   3.1900  71.3600 O     1   SOL  -0.8340
5096   HW1  13.9200   3.4100  70.4700 H     1   SOL   0.4170
5097   HW2  14.4300   3.1800  71.8800 H     1   SOL   0.4170
5098    OW   8.3800  40.3800  72.7100 O     1   SOL  -0.8340
5099   HW1   8.8600  41.0600  73.1900 H     1   SOL   0.4170
5100   HW2   8.5600  40.5700  71.7900 H     1   SOL   0.4170
5101    OW   9.5400  20.4400  73.7500 O     1   SOL  -0.8340
5102   HW1   9.3000  20.2600  72.8400 H     1   SOL   0.4170
5103   HW2  10.4200  20.0800  73.8400 H     1   SOL   0.4170
5104    OW  29.2800  33.8900  52.5200 O     1   SOL  -0.8340
5105   HW1  29.6700  34.6600  52.9500 H     1   SOL   0.4170
5106   HW2  28.8300  34.2500  51.7600 H     1   SOL   0.4170
5107    OW   5.0300  14.8300  76.8900 O     1   SOL  -0.8340
5108   HW1   4.2000  15.2900  76.7400 H     1   SOL   0.4170
5109   HW2   5.6400  15.5200  77.1500 H     1   SOL   0.4170
5110    OW  14.7600  28.7500  24.0000 O     1   SOL  -0.8340
5111   HW1  13.9400  29.0900  24.3700 H     1   SOL   0.4170
5112   HW2  14.8500  27.8800  24.4000 H     1   SOL   0.4170
5113    OW  13.6900  11.7700  71.8200 O     1   SOL  -0.8340
5114   HW1  12.9500  11.5700  72.4000 H     1   SOL   0.4170
5115   HW2  13.5100  11.2700  71.0200 H     1   SOL   0.4170
5116    OW  24.5300  29.0300  68.6000 O     1   SOL  -0.8340
5117   HW1  24.9200  29.8400  68.2900 H     1   SOL   0.4170
5118   HW2  23.5900  29.1500  68.4800 H     1   SOL   0.4170
5119    OW   2.3000  24.2400  71.5600 O     1   SOL  -0.8340
5120   HW1   2.2500  24.2500  72.5200 H     1   SOL   0.4170
5121   HW2   2.6200  23.3700  71.3500 H     1   SOL   0.4170
5122    OW  16.4100   2.3900  76.3300 O     1   SOL  -0.8340
5123   HW1  15.9400   3.0200  75.7800 H     1   SOL   0.4170
5124   HW2  17.3200   2.6800  76.3000 H     1   SOL   0.4170
5125    OW  40.4900   8.6600  68.5900 O     1   SOL  -0.8340
5126   HW1  40.3500   8.3300  69.4800 H     1   SOL   0.4170
5127   HW2  41.4200   8.8400  68.5500 H     1   SOL   0.4170
5128    OW  26.6900   1.1500  76.4900 O     1   SOL  -0.8340
5129   HW1  26.3700   0.2500  76.4600 H     1   SOL   0.4170
5130   HW2  26.3900   1.5300  75.6600 H     1   SOL   0.4170
5131    OW  28.7200  35.7700  61.6100 O     1   SOL  -0.8340
5132   HW1  29.4300  36.4000  61.4900 H     1   SOL   0.4170
5133   HW2  28.8900  35.0900  60.9600 H     1   SOL   0.4170
5134    OW   9.6500   6.3500  66.8700 O     1   SOL  -0.8340
5135   HW1  10.5200   6.5400  67.2200 H     1   SOL   0.4170
5136   HW2   9.4500   7.0900  66.3000 H     1   SOL   0.4170
5137    OW  40.2600  30.5800  60.3100 O     1   SOL  -0.8340
5138   HW1  41.0200  30.1500  60.7000 H     1   SOL   0.4170
5139   HW2  40.5600  30.8600  59.4400 H     1   SOL   0.4170
5140    OW   3.1700  21.6200  74.4000 O     1   SOL  -0.8340
5141   HW1   2.3000  21.7800  74.0500 H     1   SOL   0.4170
5142   HW2   3.7600  22.0600  73.7900 H     1   SOL   0.4170
5143    OW  42.6400   5.1500  76.4000 O     1   SOL  -0.8340
5144   HW1  41.9300   5.7600  76.6000 H     1   SOL   0.4170
5145   HW2  43.3800   5.7300  76.1700 H     1   SOL   0.4170
5146    OW  23.3100   5.1100  74.7300 O     1   SOL  -0.8340
5147   HW1  22.4600   4.6700  74.6800 H     1   SOL   0.4170
5148   HW2  23.1900   5.9300  74.2700 H     1   SOL   0.4170
5149    OW   4.1000   1.7400  59.1300 O     1   SOL  -0.8340
5150   HW1   4.8200   1.1100  59.0500 H     1   SOL   0.4170
5151   HW2   3.4800   1.4800  58.4500 H     1   SOL   0.4170
5152    OW  16.9500   1.3400  66.7300 O     1   SOL  -0.8340
5153   HW1  17.0800   0.7800  67.5000 H     1   SOL   0.4170
5154   HW2  17.8300   1.5900  66.4600 H     1   SOL   0.4170
5155    OW  14.8600  14.2700  71.7600 O     1   SOL  -0.8340
5156   HW1  13.9600  14.6000  71.7900 H     1   SOL   0.4170
5157   HW2  14.7800  13.3500  72.0000 H     1   SOL   0.4170
5158    OW  13.9800  16.5800  65.9400 O     1   SOL  -0.8340
5159   HW1  14.4300  16.6800  65.1000 H     1   SOL   0.4170
5160   HW2  13.0700  16.7900  65.7500 H     1   SOL   0.4170
5161    OW  42.7800   9.3600  61.2300 O     1   SOL  -0.8340
5162   HW1  42.3300   9.2000  62.0600 H     1   SOL   0.4170
5163   HW2  42.0900   9.5800  60.6200 H     1   SOL   0.4170
5164    OW  29.6200   5.9900  51.6800 O     1   SOL  -0.8340
5165   HW1  28.6900   5.8600  51.8600 H     1   SOL   0.4170
5166   HW2  29.9000   6.6300  52.3300 H     1   SOL   0.4170
5167    OW  19.0200   0.5900  57.8800 O     1   SOL  -0.8340
5168   HW1  18.5900  -0.2700  57.8500 H     1   SOL   0.4170
5169   HW2  18.4900   1.1000  58.4900 H     1   SOL   0.4170
5170    OW  21.4400  10.0700  46.3800 O     1   SOL  -0.8340
5171   HW1  21.2700   9.6400  45.5400 H     1   SOL   0.4170
5172   HW2  20.6400  10.5700  46.5500 H     1   SOL   0.4170
5173    OW  19.2100  25.1500  68.8800 O     1   SOL  -0.8340
5174   HW1  19.0000  24.9400  69.7900 H     1   SOL   0.4170
5175   HW2  18.5200  24.7200  68.3800 H     1   SOL   0.4170
5176    OW   1.5000  16.8800  60.4400 O     1   SOL  -0.8340
5177   HW1   1.1900  17.5900  61.0000 H     1   SOL   0.4170
5178   HW2   0.8900  16.8800  59.7000 H     1   SOL   0.4170
5179    OW  22.4400  13.0600  71.2900 O     1   SOL  -0.8340
5180   HW1  22.6600  13.4200  70.4300 H     1   SOL   0.4170
5181   HW2  22.6800  13.7500  71.9100 H     1   SOL   0.4170
5182    OW  17.2600  15.8600  72.0400 O     1   SOL  -0.8340
5183   HW1  17.9100  15.4200  71.4900 H     1   SOL   0.4170
5184   HW2  16.4600  15.3300  71.9400 H     1   SOL   0.4170
5185    OW  26.8700   5.5500  52.5400 O     1   SOL  -0.8340
5186   HW1  26.3800   5.9500  53.2600 H     1   SOL   0.4170
5187   HW2  26.7800   4.6100  52.6700 H     1   SOL   0.4170
5188    OW  16.8400  42.5500  68.8300 O     1   SOL  -0.8340
5189   HW1  17.0600  42.2300  69.7100 H     1   SOL   0.4170
5190   HW2  15.9100  42.3600  68.7300 H     1   SOL   0.4170
5191    OW  11.4200   8.8100  76.5600 O     1   SOL  -0.8340
5192   HW1  10.6800   8.3100  76.9100 H     1   SOL   0.4170
5193   HW2  12.1800   8.4200  76.9900 H     1   SOL   0.4170
5194    OW   8.6500  25.9800  58.1200 O     1   SOL  -0.8340
5195   HW1   7.8200  26.4400  58.2100 H     1   SOL   0.4170
5196   HW2   8.6200  25.6000  57.2400 H     1   SOL   0.4170
5197    OW  22.7500  15.0200  57.4400 O     1   SOL  -0.8340
5198   HW1  23.5400  15.1700  57.9600 H     1   SOL   0.4170
5199   HW2  22.7200  15.7600  56.8300 H     1   SOL   0.4170
5200    OW  16.0800   9.1500  59.7000 O     1   SOL  -0.8340
5201   HW1  16.6000   9.3500  60.4700 H     1   SOL   0.4170
5202   HW2  16.6500   8.5900  59.1600 H     1   SOL   0.4170
5203    OW   7.7400  24.0900  61.4900 O     1   SOL  -0.8340
5204   HW1   8.6800  24.1700  61.6500 H     1   SOL   0.4170
5205   HW2   7.3300  24.4600  62.2700 H     1   SOL   0.4170
5206    OW  11.5700   2.0700  74.4900 O     1   SOL  -0.8340
5207   HW1  12.3700   1.7900  74.0400 H     1   SOL   0.4170
5208   HW2  10.8600   1.8200  73.8900 H     1   SOL   0.4170
5209    OW  40.9300  35.6400  71.7400 O     1   SOL  -0.8340
5210   HW1  41.5600  35.8600  71.0600 H     1   SOL   0.4170
5211   HW2  41.3200  34.9000  72.2000 H     1   SOL   0.4170
5212    OW  23.4900  19.2000  74.2900 O     1   SOL  -0.8340
5213   HW1  24.0500  18.4400  74.1200 H     1   SOL   0.4170
5214   HW2  23.7800  19.8600  73.6700 H     1   SOL   0.4170
5215    OW   3.0900  16.9700  76.8600 O     1   SOL  -0.8340
5216   HW1   3.9200  17.3400  77.1700 H     1   SOL   0.4170
5217   HW2   2.4500  17.6700  77.0400 H     1   SOL   0.4170
5218    OW  13.8600  35.4600  57.4100 O     1   SOL  -0.8340
5219   HW1  14.2000  35.7500  58.2600 H     1   SOL   0.4170
5220   HW2  13.8100  36.2600  56.8900 H     1   SOL   0.4170
5221    OW   6.0300  12.3900  55.2900 O     1   SOL  -0.8340
5222   HW1   6.2900  12.7900  56.1200 H     1   SOL   0.4170
5223   HW2   5.5000  11.6400  55.5400 H     1   SOL   0.4170
5224    OW  18.9400   4.0500  67.7500 O     1   SOL  -0.8340
5225   HW1  19.7000   4.2200  68.3100 H     1   SOL   0.4170
5226   HW2  18.5100   3.3100  68.1700 H     1   SOL   0.4170
5227    OW   9.7800  17.4900  74.9600 O     1   SOL  -0.8340
5228   HW1  10.0300  16.7800  75.5600 H     1   SOL   0.4170
5229   HW2  10.4700  17.5100  74.3000 H     1   SOL   0.4170
5230    OW  39.3800  24.1100  64.4000 O     1   SOL  -0.8340
5231   HW1  38.6100  23.9400  64.9400 H     1   SOL   0.4170
5232   HW2  39.0700  24.7100  63.7200 H     1   SOL   0.4170
5233    OW  22.9100  36.8000  61.0500 O     1   SOL  -0.8340
5234   HW1  22.3000  36.3500  60.4600 H     1   SOL   0.4170
5235   HW2  22.8800  37.7100  60.7600 H     1   SOL   0.4170
5236    OW   4.8400  15.6500  53.8900 O     1   SOL  -0.8340
5237   HW1   4.9900  16.0300  53.0300 H     1   SOL   0.4170
5238   HW2   5.2100  14.7700  53.8300 H     1   SOL   0.4170
5239    OW  14.9100  16.5800  74.3000 O     1   SOL  -0.8340
5240   HW1  15.6300  16.2800  73.7400 H     1   SOL   0.4170
5241   HW2  15.0700  17.5200  74.4100 H     1   SOL   0.4170
5242    OW  37.4900  37.8900  74.1100 O     1   SOL  -0.8340
5243   HW1  36.5700  38.1500  74.0600 H     1   SOL   0.4170
5244   HW2  37.6300  37.6600  75.0300 H     1   SOL   0.4170
5245    OW   7.6700   9.9700  76.7000 O     1   SOL  -0.8340
5246   HW1   6.9700   9.7300  76.0900 H     1   SOL   0.4170
5247   HW2   7.5100  10.8900  76.8900 H     1   SOL   0.4170
5248    OW  34.2500  14.0300  65.2200 O     1   SOL  -0.8340
5249   HW1  33.8400  14.4600  64.4800 H     1   SOL   0.4170
5250   HW2  33.6700  13.2900  65.4200 H     1   SOL   0.4170
5251    OW   2.4300  11.7200  66.4200 O     1   SOL  -0.8340
5252   HW1   1.8300  12.3700  66.7800 H     1   SOL   0.4170
5253   HW2   3.2600  11.8700  66.8700 H     1   SOL   0.4170
5254    OW   6.6600  38.7400  67.1300 O     1   SOL  -0.8340
5255   HW1   5.9000  38.6500  67.7100 H     1   SOL   0.4170
5256   HW2   7.3700  38.2900  67.5900 H     1   SOL   0.4170
5257    OW  34.3100  25.1000  61.6400 O     1   SOL  -0.8340
5258   HW1  34.7300  25.1500  62.4900 H     1   SOL   0.4170
5259   HW2  34.6300  25.8700  61.1700 H     1   SOL   0.4170
5260    OW   2.9000  15.3000  70.5200 O     1   SOL  -0.8340
5261   HW1   2.0800  15.1200  70.9800 H     1   SOL   0.4170
5262   HW2   3.5800  15.2300  71.1900 H     1   SOL   0.4170
5263    OW   6.2300   8.0600  72.0300 O     1   SOL  -0.8340
5264   HW1   6.2000   7.5000  71.2600 H     1   SOL   0.4170
5265   HW2   6.5400   7.4900  72.7300 H     1   SOL   0.4170
5266    OW   2.4800  24.5000  74.1200 O     1   SOL  -0.8340
5267   HW1   2.1700  24.7500  74.9900 H     1   SOL   0.4170
5268   HW2   3.3700  24.8400  74.0800 H     1   SOL   0.4170
5269    OW  15.5300   8.7300  63.7000 O     1   SOL  -0.8340
5270   HW1  14.6500   8.9600  63.9900 H     1   SOL   0.4170
5271   HW2  16.1100   9.1900  64.3100 H     1   SOL   0.4170
5272    OW  16.2600  18.9300  74.2800 O     1   SOL  -0.8340
5273   HW1  16.2000  19.2200  73.3700 H     1   SOL   0.4170
5274   HW2  17.1800  18.6800  74.3800 H     1   SOL   0.4170
5275    OW   5.8800   9.7300  74.7500 O     1   SOL  -0.8340
5276   HW1   6.7600   9.5300  74.4300 H     1   SOL   0.4170
5277   HW2   5.3900   9.9700  73.9600 H     1   SOL   0.4170
5278    OW  41.2800  11.1200  75.2200 O     1   SOL  -0.8340
5279   HW1  41.8000  10.5200  75.7600 H     1   SOL   0.4170
5280   HW2  40.4900  11.2900  75.7400 H     1   SOL   0.4170
5281    OW  37.4500   7.1100  77.1600 O     1   SOL  -0.8340
5282   HW1  37.8800   7.1000  76.3000 H     1   SOL   0.4170
5283   HW2  37.8500   7.8500  77.6200 H     1   SOL   0.4170
5284    OW  29.9600  11.3900  68.8100 O     1   SOL  -0.8340
5285   HW1  29.7100  11.5800  69.7100 H     1   SOL   0.4170
5286   HW2  29.1600  11.0300  68.4100 H     1   SOL   0.4170
5287    OW   6.2300  23.5100  65.6800 O     1   SOL  -0.8340
5288   HW1   5.5800  22.9100  65.3200 H     1   SOL   0.4170
5289   HW2   6.5900  23.9600  64.9100 H     1   SOL   0.4170
5290    OW  14.1600   1.3300  65.5300 O     1   SOL  -0.8340
5291   HW1  15.0100   1.3500  65.9800 H     1   SOL   0.4170
5292   HW2  14.1100   0.4600  65.1400 H     1   SOL   0.4170
5293    OW  13.9400   1.2900  76.6800 O     1   SOL  -0.8340
5294   HW1  13.5400   2.1400  76.8300 H     1   SOL   0.4170
5295   HW2  14.8800   1.4600  76.7300 H     1   SOL   0.4170
5296    OW  18.0700  22.6200  49.0900 O     1   SOL  -0.8340
5297   HW1  18.4300  23.0100  49.8900 H     1   SOL   0.4170
5298   HW2  17.7900  21.7500  49.3600 H     1   SOL   0.4170
5299    OW  10.1900  29.8200  67.7100 O     1   SOL  -0.8340
5300   HW1  10.6800  30.1300  68.4700 H     1   SOL   0.4170
5301   HW2   9.3900  30.3500  67.7100 H     1   SOL   0.4170
5302    OW  39.8200  16.6800  76.9100 O     1   SOL  -0.8340
5303   HW1  40.5800  16.2600  76.5100 H     1   SOL   0.4170
5304   HW2  39.2200  15.9600  77.1100 H     1   SOL   0.4170
5305    OW  19.2200   2.8900  76.8500 O     1   SOL  -0.8340
5306   HW1  19.2300   3.8400  76.8100 H     1   SOL   0.4170
5307   HW2  20.1000   2.6500  77.1300 H     1   SOL   0.4170
5308    OW  10.3200   1.6100  77.0300 O     1   SOL  -0.8340
5309   HW1  10.3800   0.6600  77.1700 H     1   SOL   0.4170
5310   HW2  10.6500   1.7400  76.1400 H     1   SOL   0.4170
5311    OW  35.2000  10.1700  76.7800 O     1   SOL  -0.8340
5312   HW1  34.9900   9.5600  76.0800 H     1   SOL   0.4170
5313   HW2  35.4000   9.6200  77.5300 H     1   SOL   0.4170
5314    OW   8.3300  13.1400  73.9700 O     1   SOL  -0.8340
5315   HW1   8.4800  12.2100  74.1500 H     1   SOL   0.4170
5316   HW2   7.3700  13.2300  73.9800 H     1   SOL   0.4170
5317    OW   1.7800   7.3100  76.9600 O     1   SOL  -0.8340
5318   HW1   2.2300   7.6600  76.2000 H     1   SOL   0.4170
5319   HW2   2.4300   6.7400  77.3800 H     1   SOL   0.4170
5320    OW  19.9200  21.6200  73.3900 O     1   SOL  -0.8340
5321   HW1  20.3300  22.0200  74.1600 H     1   SOL   0.4170
5322   HW2  19.1700  21.1400  73.7500 H     1   SOL   0.4170
5323    OW   7.4600   5.1400  77.2600 O     1   SOL  -0.8340
5324   HW1   6.7800   5.8100  77.2300 H     1   SOL   0.4170
5325   HW2   7.2900   4.5900  76.4900 H     1   SOL   0.4170
5326    OW   4.5400  10.4800  76.8300 O     1   SOL  -0.8340
5327   HW1   5.0100  10.2900  76.0300 H     1   SOL   0.4170
5328   HW2   5.1400  11.0100  77.3500 H     1   SOL   0.4170
5329    OW   8.6900  18.5600  77.0100 O     1   SOL  -0.8340
5330   HW1   9.3800  18.4500  77.6700 H     1   SOL   0.4170
5331   HW2   9.0700  18.2000  76.2100 H     1   SOL   0.4170
5332    OW   8.0800  21.0000  75.9700 O     1   SOL  -0.8340
5333   HW1   8.2200  20.2000  76.4700 H     1   SOL   0.4170
5334   HW2   8.5600  20.8500  75.1500 H     1   SOL   0.4170
5335    OW  25.7000  41.8200  76.8400 O     1   SOL  -0.8340
5336   HW1  25.1600  41.0800  77.1100 H     1   SOL   0.4170
5337   HW2  26.6000  41.4900  76.9100 H     1   SOL   0.4170
5338    OW  10.9100   3.0300  71.2600 O     1   SOL  -0.8340
5339   HW1  11.8700   3.0400  71.2900 H     1   SOL   0.4170
5340   HW2  10.6500   3.8500  71.6700 H     1   SOL   0.4170
5341    OW   1.2200  18.8900  77.0200 O     1   SOL  -0.8340
5342   HW1   1.5900  19.7600  77.2000 H     1   SOL   0.4170
5343   HW2   0.2900  19.0600  76.8500 H     1   SOL   0.4170
5344    OW  23.5600   7.4400  73.2900 O     1   SOL  -0.8340
5345   HW1  24.0000   7.3700  72.4400 H     1   SOL   0.4170
5346   HW2  23.6100   8.3700  73.5200 H     1   SOL   0.4170
5347    OW  13.0200  13.8600  76.9000 O     1   SOL  -0.8340
5348   HW1  12.3300  13.2100  77.0200 H     1   SOL   0.4170
5349   HW2  13.8000  13.3400  76.6800 H     1   SOL   0.4170
5350    OW  23.8300   7.3800  66.0800 O     1   SOL  -0.8340
5351   HW1  23.6500   6.4700  65.8800 H     1   SOL   0.4170
5352   HW2  24.4500   7.6600  65.4000 H     1   SOL   0.4170
5353    OW  12.3300   9.2500  74.0600 O     1   SOL  -0.8340
5354   HW1  11.9700   8.9700  74.9000 H     1   SOL   0.4170
5355   HW2  13.2000   8.8600  74.0300 H     1   SOL   0.4170
5356    OW  39.5300  12.3300  77.0700 O     1   SOL  -0.8340
5357   HW1  39.7400  13.0900  77.6100 H     1   SOL   0.4170
5358   HW2  38.6500  12.5300  76.7300 H     1   SOL   0.4170
5359    OW   8.3900  40.3000  69.7300 O     1   SOL  -0.8340
5360   HW1   8.6300  39.6900  69.0300 H     1   SOL   0.4170
5361   HW2   7.9600  41.0300  69.2700 H     1   SOL   0.4170
5362    OW   1.8700  10.9200  76.7600 O     1   SOL  -0.8340
5363   HW1   1.8100  11.7800  77.1800 H     1   SOL   0.4170
5364   HW2   2.7800  10.6600  76.8600 H     1   SOL   0.4170
5365    OW   0.5300  11.0400  74.0800 O     1   SOL  -0.8340
5366   HW1  -0.3900  11.2200  74.2600 H     1   SOL   0.4170
5367   HW2   0.6900  10.1900  74.5000 H     1   SOL   0.4170
5368    OW  20.6200  17.0800  62.7400 O     1   SOL  -0.8340
5369   HW1  20.8500  16.1700  62.5300 H     1   SOL   0.4170
5370   HW2  21.4600  17.5200  62.8500 H     1   SOL   0.4170
5371    OW   9.3200   1.4800  72.9600 O     1   SOL  -0.8340
5372   HW1   8.5400   1.2900  72.4400 H     1   SOL   0.4170
5373   HW2   9.9000   1.9600  72.3600 H     1   SOL   0.4170
5374    OW  19.4800  16.6300  66.0500 O     1   SOL  -0.8340
5375   HW1  19.9400  16.1400  65.3700 H     1   SOL   0.4170
5376   HW2  18.9600  17.2700  65.5600 H     1   SOL   0.4170
5377    OW  41.4000  16.7500  74.3500 O     1   SOL  -0.8340
5378   HW1  41.2900  15.9200  74.8200 H     1   SOL   0.4170
5379   HW2  42.3400  16.8000  74.1800 H     1   SOL   0.4170
5380    OW  39.8500  40.5200  69.3300 O     1   SOL  -0.8340
5381   HW1  40.1100  40.1400  70.1700 H     1   SOL   0.4170
5382   HW2  38.9900  40.9200  69.5000 H     1   SOL   0.4170
5383    OW   4.1600   5.6200  73.4300 O     1   SOL  -0.8340
5384   HW1   4.9500   5.5300  72.8900 H     1   SOL   0.4170
5385   HW2   3.9400   4.7300  73.6900 H     1   SOL   0.4170
5386    OW  24.1500  10.8600  70.7600 O     1   SOL  -0.8340
5387   HW1  23.5400  11.5900  70.6900 H     1   SOL   0.4170
5388   HW2  24.8300  11.1700  71.3600 H     1   SOL   0.4170
5389    OW  11.5500  11.7000  76.6700 O     1   SOL  -0.8340
5390   HW1  11.4600  10.7900  76.3900 H     1   SOL   0.4170
5391   HW2  10.6800  11.9600  76.9600 H     1   SOL   0.4170
5392    OW  15.4000  17.4800  68.1800 O     1   SOL  -0.8340
5393   HW1  15.4200  18.4400  68.1900 H     1   SOL   0.4170
5394   HW2  15.1800  17.2500  67.2800 H     1   SOL   0.4170
5395    OW  29.0000  41.3500  70.1800 O     1   SOL  -0.8340
5396   HW1  28.4200  41.2700  70.9400 H     1   SOL   0.4170
5397   HW2  28.4000  41.3300  69.4200 H     1   SOL   0.4170
5398    OW  39.3100   9.5400  76.8700 O     1   SOL  -0.8340
5399   HW1  38.8800   9.7400  76.0400 H     1   SOL   0.4170
5400   HW2  39.2100  10.3400  77.3900 H     1   SOL   0.4170
5401    OW  12.9900  18.8900  69.1800 O     1   SOL  -0.8340
5402   HW1  12.2100  18.3600  69.3800 H     1   SOL   0.4170
5403   HW2  13.5100  18.3400  68.5900 H     1   SOL   0.4170
5404    OW  13.5700  26.7000  11.5300 O     1   SOL  -0.8340
5405   HW1  13.5500  27.5300  12.0100 H     1   SOL   0.4170
5406   HW2  14.3800  26.7100  11.0400 H     1   SOL   0.4170
5407    OW   1.2100  29.1800  11.8400 O     1   SOL  -0.8340
5408   HW1   2.0800  29.3000  12.2100 H     1   SOL   0.4170
5409   HW2   1.3700  28.8400  10.9600 H     1   SOL   0.4170
5410    OW  13.1200  22.8200  11.0100 O     1   SOL  -0.8340
5411   HW1  13.7200  23.4500  10.6200 H     1   SOL   0.4170
5412   HW2  13.5900  22.4600  11.7600 H     1   SOL   0.4170
5413    OW  22.0600  26.8600  21.8100 O     1   SOL  -0.8340
5414   HW1  22.8000  27.2400  22.2800 H     1   SOL   0.4170
5415   HW2  21.6500  26.2800  22.4600 H     1   SOL   0.4170
5416    OW   5.0500  25.5600   6.9100 O     1   SOL  -0.8340
5417   HW1   5.7500  26.1900   6.7200 H     1   SOL   0.4170
5418   HW2   4.2500  26.0800   6.8600 H     1   SOL   0.4170
5419    OW   6.8400  40.9100  26.5500 O     1   SOL  -0.8340
5420   HW1   7.7300  40.6000  26.4000 H     1   SOL   0.4170
5421   HW2   6.3300  40.5100  25.8500 H     1   SOL   0.4170
5422    OW  40.7500  40.8200  14.4900 O     1   SOL  -0.8340
5423   HW1  40.9600  40.1900  13.8100 H     1   SOL   0.4170
5424   HW2  39.7900  40.8900  14.4700 H     1   SOL   0.4170
5425    OW   9.6100  21.6500  17.6300 O     1   SOL  -0.8340
5426   HW1  10.1200  20.8400  17.5700 H     1   SOL   0.4170
5427   HW2   8.7000  21.3500  17.6300 H     1   SOL   0.4170
5428    OW  30.7500  24.0500  17.3900 O     1   SOL  -0.8340
5429   HW1  31.6400  23.7400  17.2200 H     1   SOL   0.4170
5430   HW2  30.4900  24.5000  16.5800 H     1   SOL   0.4170
5431    OW   4.1900  33.4500   6.8500 O     1   SOL  -0.8340
5432   HW1   4.4100  34.3700   6.6600 H     1   SOL   0.4170
5433   HW2   3.6000  33.5000   7.6000 H     1   SOL   0.4170
5434    OW   3.6500  30.7100   6.4800 O     1   SOL  -0.8340
5435   HW1   4.2200  30.1300   5.9800 H     1   SOL   0.4170
5436   HW2   4.0400  31.5800   6.3700 H     1   SOL   0.4170
5437    OW  19.6100  15.5100  11.9400 O     1   SOL  -0.8340
5438   HW1  18.7000  15.5900  12.2300 H     1   SOL   0.4170
5439   HW2  19.8700  16.4000  11.7000 H     1   SOL   0.4170
5440    OW  36.8500  29.8100  24.5300 O     1   SOL  -0.8340
5441   HW1  37.5800  29.2600  24.2600 H     1   SOL   0.4170
5442   HW2  37.1700  30.7100  24.4300 H     1   SOL   0.4170
5443    OW  14.3300  29.6600  13.1500 O     1   SOL  -0.8340
5444   HW1  13.5900  30.2800  13.1700 H     1   SOL   0.4170
5445   HW2  14.9600  30.0700  12.5600 H     1   SOL   0.4170
5446    OW   3.1100  27.6200   6.6000 O     1   SOL  -0.8340
5447   HW1   2.4900  28.3600   6.5400 H     1   SOL   0.4170
5448   HW2   3.9700  28.0100   6.4600 H     1   SOL   0.4170
5449    OW  25.1200  26.1800  10.4200 O     1   SOL  -0.8340
5450   HW1  24.6400  25.4400  10.0700 H     1   SOL   0.4170
5451   HW2  26.0300  25.8900  10.4600 H     1   SOL   0.4170
5452    OW   9.1900  39.1200  12.6700 O     1   SOL  -0.8340
5453   HW1   9.1900  39.3400  13.6000 H     1   SOL   0.4170
5454   HW2   9.7300  38.3200  12.6100 H     1   SOL   0.4170
5455    OW   1.5900  17.3300   9.5500 O     1   SOL  -0.8340
5456   HW1   1.4900  16.6100   8.9200 H     1   SOL   0.4170
5457   HW2   0.8800  17.2100  10.1700 H     1   SOL   0.4170
5458    OW  25.8700  34.5600   6.6300 O     1   SOL  -0.8340
5459   HW1  26.4000  33.7700   6.5400 H     1   SOL   0.4170
5460   HW2  26.0200  34.8500   7.5300 H     1   SOL   0.4170
5461    OW  17.1800  38.6900   6.9200 O     1   SOL  -0.8340
5462   HW1  16.6200  39.4300   7.1400 H     1   SOL   0.4170
5463   HW2  18.0200  39.0800   6.6700 H     1   SOL   0.4170
5464    OW  21.8700   4.5200  16.3200 O     1   SOL  -0.8340
5465   HW1  22.5200   4.0600  15.8000 H     1   SOL   0.4170
5466   HW2  22.1300   4.3700  17.2300 H     1   SOL   0.4170
5467    OW  22.9000  29.1700  16.8500 O     1   SOL  -0.8340
5468   HW1  22.5000  30.0400  16.9500 H     1   SOL   0.4170
5469   HW2  23.8300  29.3500  16.6800 H     1   SOL   0.4170
5470    OW   8.3000  17.9700   9.5900 O     1   SOL  -0.8340
5471   HW1   7.7700  17.8900  10.3800 H     1   SOL   0.4170
5472   HW2   8.9900  17.3200   9.7000 H     1   SOL   0.4170
5473    OW  38.0400  25.7200   6.7400 O     1   SOL  -0.8340
5474   HW1  38.9900  25.8400   6.7500 H     1   SOL   0.4170
5475   HW2  37.9000  24.8900   7.1800 H     1   SOL   0.4170
5476    OW  28.0100  30.3700  16.4700 O     1   SOL  -0.8340
5477   HW1  27.4800  29.5800  16.6000 H     1   SOL   0.4170
5478   HW2  28.3900  30.2600  15.6000 H     1   SOL   0.4170
5479    OW  20.4400  22.3800  21.3300 O     1   SOL  -0.8340
5480   HW1  19.4900  22.3800  21.4200 H     1   SOL   0.4170
5481   HW2  20.6000  22.8600  20.5200 H     1   SOL   0.4170
5482    OW   4.7100  36.0500   6.7300 O     1   SOL  -0.8340
5483   HW1   5.4000  36.7000   6.6500 H     1   SOL   0.4170
5484   HW2   3.9400  36.5500   7.0100 H     1   SOL   0.4170
5485    OW  16.1600  26.6600  10.3600 O     1   SOL  -0.8340
5486   HW1  16.8600  26.4900  10.9900 H     1   SOL   0.4170
5487   HW2  16.2600  27.5800  10.1400 H     1   SOL   0.4170
5488    OW  12.8800  18.8500  18.2600 O     1   SOL  -0.8340
5489   HW1  13.1800  19.4500  17.5800 H     1   SOL   0.4170
5490   HW2  12.6300  19.4200  18.9900 H     1   SOL   0.4170
5491    OW  24.6800  26.8300  16.8400 O     1   SOL  -0.8340
5492   HW1  24.1500  26.1400  17.2400 H     1   SOL   0.4170
5493   HW2  24.1900  27.1000  16.0600 H     1   SOL   0.4170
5494    OW   9.8000  34.6500  13.2400 O     1   SOL  -0.8340
5495   HW1   9.5900  35.1700  14.0100 H     1   SOL   0.4170
5496   HW2   8.9700  34.2600  12.9800 H     1   SOL   0.4170
5497    OW  21.5900   7.9700  17.5400 O     1   SOL  -0.8340
5498   HW1  20.7400   7.5300  17.6400 H     1   SOL   0.4170
5499   HW2  21.4500   8.6000  16.8400 H     1   SOL   0.4170
5500    OW  15.7700  20.2600  14.0900 O     1   SOL  -0.8340
5501   HW1  16.6100  20.4000  14.5400 H     1   SOL   0.4170
5502   HW2  15.5800  21.1100  13.6800 H     1   SOL   0.4170
5503    OW   0.3100  35.6000  19.1300 O     1   SOL  -0.8340
5504   HW1   0.3300  36.3300  19.7600 H     1   SOL   0.4170
5505   HW2  -0.6300  35.4100  19.0100 H     1   SOL   0.4170
5506    OW  23.5500  23.9500   9.4700 O     1   SOL  -0.8340
5507   HW1  23.0500  23.2100   9.8200 H     1   SOL   0.4170
5508   HW2  23.7500  23.7000   8.5700 H     1   SOL   0.4170
5509    OW  14.4500  14.4000  17.7700 O     1   SOL  -0.8340
5510   HW1  13.8600  15.1200  17.5500 H     1   SOL   0.4170
5511   HW2  15.0800  14.7900  18.3800 H     1   SOL   0.4170
5512    OW  21.3700  25.3300  10.7300 O     1   SOL  -0.8340
5513   HW1  21.5700  24.5500  11.2500 H     1   SOL   0.4170
5514   HW2  22.0600  25.3600  10.0700 H     1   SOL   0.4170
5515    OW  30.5200  28.1700  15.5600 O     1   SOL  -0.8340
5516   HW1  30.3000  27.2400  15.7000 H     1   SOL   0.4170
5517   HW2  29.8200  28.5000  15.0000 H     1   SOL   0.4170
5518    OW  23.4900  42.4400  24.3800 O     1   SOL  -0.8340
5519   HW1  23.2900  41.8600  23.6400 H     1   SOL   0.4170
5520   HW2  22.7600  43.0600  24.3900 H     1   SOL   0.4170
5521    OW  13.5100   6.2500  38.8400 O     1   SOL  -0.8340
5522   HW1  13.6300   7.1600  38.5500 H     1   SOL   0.4170
5523   HW2  14.2000   5.7600  38.4000 H     1   SOL   0.4170
5524    OW  22.6400  27.7000   9.3900 O     1   SOL  -0.8340
5525   HW1  23.2700  27.1600   9.8600 H     1   SOL   0.4170
5526   HW2  22.8400  27.5500   8.4700 H     1   SOL   0.4170
5527    OW  17.7300  17.5800  11.3000 O     1   SOL  -0.8340
5528   HW1  17.0100  18.1900  11.2000 H     1   SOL   0.4170
5529   HW2  18.0700  17.7400  12.1800 H     1   SOL   0.4170
5530    OW   6.6200  29.1700  16.2400 O     1   SOL  -0.8340
5531   HW1   6.3100  28.2700  16.3600 H     1   SOL   0.4170
5532   HW2   7.5200  29.0700  15.9300 H     1   SOL   0.4170
5533    OW   2.0400  42.2900  14.6000 O     1   SOL  -0.8340
5534   HW1   1.1400  42.5700  14.4300 H     1   SOL   0.4170
5535   HW2   2.0800  42.2000  15.5500 H     1   SOL   0.4170
5536    OW  16.0800  33.5100   9.7000 O     1   SOL  -0.8340
5537   HW1  15.4300  33.5100   9.0000 H     1   SOL   0.4170
5538   HW2  16.9300  33.5500   9.2500 H     1   SOL   0.4170
5539    OW  25.1200   8.2000  14.5600 O     1   SOL  -0.8340
5540   HW1  24.6200   7.5100  14.1200 H     1   SOL   0.4170
5541   HW2  24.5100   8.9300  14.6500 H     1   SOL   0.4170
5542    OW  35.5800  16.5100  29.8600 O     1   SOL  -0.8340
5543   HW1  36.0900  17.3200  29.8700 H     1   SOL   0.4170
5544   HW2  34.6700  16.8000  29.7800 H     1   SOL   0.4170
5545    OW  34.5900  10.6400  15.9200 O     1   SOL  -0.8340
5546   HW1  34.9000   9.7800  16.2000 H     1   SOL   0.4170
5547   HW2  33.6300  10.5600  15.9500 H     1   SOL   0.4170
5548    OW  31.9400  12.3600  20.8600 O     1   SOL  -0.8340
5549   HW1  32.8200  12.2500  20.5200 H     1   SOL   0.4170
5550   HW2  31.3900  12.4600  20.0800 H     1   SOL   0.4170
5551    OW  42.6200  11.4300  16.8000 O     1   SOL  -0.8340
5552   HW1  42.8200  12.3600  16.8600 H     1   SOL   0.4170
5553   HW2  41.7600  11.3400  17.2100 H     1   SOL   0.4170
5554    OW   7.5400  26.9400   6.8500 O     1   SOL  -0.8340
5555   HW1   8.0500  26.2400   6.4300 H     1   SOL   0.4170
5556   HW2   8.0600  27.7300   6.7000 H     1   SOL   0.4170
5557    OW  32.8400  33.3000  20.8600 O     1   SOL  -0.8340
5558   HW1  33.6200  32.7700  20.6700 H     1   SOL   0.4170
5559   HW2  32.6100  33.0800  21.7600 H     1   SOL   0.4170
5560    OW   2.3400  36.0100  26.5200 O     1   SOL  -0.8340
5561   HW1   2.7000  36.5500  25.8100 H     1   SOL   0.4170
5562   HW2   2.5600  36.4800  27.3200 H     1   SOL   0.4170
5563    OW  42.7000  23.9000   6.9000 O     1   SOL  -0.8340
5564   HW1  43.0800  23.1700   6.4000 H     1   SOL   0.4170
5565   HW2  43.4300  24.4900   7.0500 H     1   SOL   0.4170
5566    OW  12.6000  26.1900   8.8700 O     1   SOL  -0.8340
5567   HW1  12.5900  26.4100   9.8100 H     1   SOL   0.4170
5568   HW2  13.1300  25.4000   8.8200 H     1   SOL   0.4170
5569    OW  32.7500  39.7600  22.1800 O     1   SOL  -0.8340
5570   HW1  33.1100  40.5100  21.7100 H     1   SOL   0.4170
5571   HW2  32.5400  39.1200  21.4900 H     1   SOL   0.4170
5572    OW   1.8800  27.9400   9.4600 O     1   SOL  -0.8340
5573   HW1   2.2500  27.9100   8.5800 H     1   SOL   0.4170
5574   HW2   1.2400  27.2200   9.4700 H     1   SOL   0.4170
5575    OW  36.5200  33.9200  18.6000 O     1   SOL  -0.8340
5576   HW1  35.8300  33.2800  18.7700 H     1   SOL   0.4170
5577   HW2  36.1700  34.7500  18.9200 H     1   SOL   0.4170
5578    OW  37.8500  24.0100  14.1000 O     1   SOL  -0.8340
5579   HW1  37.0100  23.8000  14.5100 H     1   SOL   0.4170
5580   HW2  37.9200  24.9600  14.1800 H     1   SOL   0.4170
5581    OW  17.2500  31.4900  14.4500 O     1   SOL  -0.8340
5582   HW1  16.3400  31.7900  14.3900 H     1   SOL   0.4170
5583   HW2  17.2900  31.0000  15.2700 H     1   SOL   0.4170
5584    OW  33.8400   0.4700  12.8700 O     1   SOL  -0.8340
5585   HW1  33.6600   0.7500  13.7700 H     1   SOL   0.4170
5586   HW2  33.0500   0.6800  12.3800 H     1   SOL   0.4170
5587    OW  24.1100   6.9000  17.0600 O     1   SOL  -0.8340
5588   HW1  24.1200   6.9000  16.1000 H     1   SOL   0.4170
5589   HW2  23.2200   7.1500  17.3000 H     1   SOL   0.4170
5590    OW   7.9000  38.2300  19.2600 O     1   SOL  -0.8340
5591   HW1   7.7800  38.9100  19.9200 H     1   SOL   0.4170
5592   HW2   7.3100  38.4700  18.5500 H     1   SOL   0.4170
5593    OW  22.2700  35.1200  21.6700 O     1   SOL  -0.8340
5594   HW1  23.2000  35.0200  21.4400 H     1   SOL   0.4170
5595   HW2  21.9900  34.2400  21.9200 H     1   SOL   0.4170
5596    OW   7.4600  42.0000  15.3300 O     1   SOL  -0.8340
5597   HW1   7.2400  42.3300  16.2000 H     1   SOL   0.4170
5598   HW2   6.7200  42.2700  14.7800 H     1   SOL   0.4170
5599    OW  42.3600  31.3800  14.4000 O     1   SOL  -0.8340
5600   HW1  42.1700  30.5000  14.7300 H     1   SOL   0.4170
5601   HW2  43.1300  31.6600  14.8900 H     1   SOL   0.4170
5602    OW  22.7300  31.8800  17.1500 O     1   SOL  -0.8340
5603   HW1  23.5600  32.1400  17.5400 H     1   SOL   0.4170
5604   HW2  22.5000  32.5900  16.5600 H     1   SOL   0.4170
5605    OW  14.3800  34.1700   6.6300 O     1   SOL  -0.8340
5606   HW1  14.8600  33.4000   6.3400 H     1   SOL   0.4170
5607   HW2  14.9500  34.9100   6.3900 H     1   SOL   0.4170
5608    OW  36.0700  39.1400  13.5800 O     1   SOL  -0.8340
5609   HW1  35.6100  39.7200  12.9700 H     1   SOL   0.4170
5610   HW2  35.8700  38.2600  13.2700 H     1   SOL   0.4170
5611    OW  40.3900  32.1700  13.0000 O     1   SOL  -0.8340
5612   HW1  41.0400  31.9100  13.6500 H     1   SOL   0.4170
5613   HW2  40.3100  33.1200  13.1000 H     1   SOL   0.4170
5614    OW  17.0800  10.6000  14.7200 O     1   SOL  -0.8340
5615   HW1  17.9900  10.5700  14.4500 H     1   SOL   0.4170
5616   HW2  16.7200   9.7500  14.4600 H     1   SOL   0.4170
5617    OW  10.2000  36.8100  18.9900 O     1   SOL  -0.8340
5618   HW1  10.0000  36.5800  18.0900 H     1   SOL   0.4170
5619   HW2   9.4700  37.3500  19.2800 H     1   SOL   0.4170
5620    OW   5.6900  28.7200   6.4400 O     1   SOL  -0.8340
5621   HW1   6.3700  28.0600   6.5300 H     1   SOL   0.4170
5622   HW2   6.1400  29.5000   6.1300 H     1   SOL   0.4170
5623    OW  18.5400  33.1500  20.7800 O     1   SOL  -0.8340
5624   HW1  18.5900  32.2000  20.7200 H     1   SOL   0.4170
5625   HW2  17.6100  33.3300  20.9600 H     1   SOL   0.4170
5626    OW  18.8200  32.5500   9.1000 O     1   SOL  -0.8340
5627   HW1  19.5600  32.5700   9.7000 H     1   SOL   0.4170
5628   HW2  19.1200  33.0100   8.3200 H     1   SOL   0.4170
5629    OW  41.9600  21.0000   6.6700 O     1   SOL  -0.8340
5630   HW1  42.6600  20.3800   6.8700 H     1   SOL   0.4170
5631   HW2  42.0100  21.1400   5.7300 H     1   SOL   0.4170
5632    OW  31.2100  28.1700   9.6500 O     1   SOL  -0.8340
5633   HW1  30.3000  28.2800   9.3800 H     1   SOL   0.4170
5634   HW2  31.2800  28.6700  10.4700 H     1   SOL   0.4170
5635    OW  16.4200  15.1800  19.7000 O     1   SOL  -0.8340
5636   HW1  17.2900  15.2200  20.1000 H     1   SOL   0.4170
5637   HW2  16.0200  16.0200  19.9100 H     1   SOL   0.4170
5638    OW   6.9100  31.4000   6.8200 O     1   SOL  -0.8340
5639   HW1   6.7500  31.5300   7.7500 H     1   SOL   0.4170
5640   HW2   7.1200  32.2700   6.4800 H     1   SOL   0.4170
5641    OW  13.2000  20.9000   6.7100 O     1   SOL  -0.8340
5642   HW1  12.9600  20.0300   6.3900 H     1   SOL   0.4170
5643   HW2  12.4100  21.4300   6.5900 H     1   SOL   0.4170
5644    OW   9.7200  30.8000  20.9100 O     1   SOL  -0.8340
5645   HW1   9.4100  30.8200  20.0000 H     1   SOL   0.4170
5646   HW2   9.8000  29.8700  21.1200 H     1   SOL   0.4170
5647    OW  42.6700  20.5000  36.4500 O     1   SOL  -0.8340
5648   HW1  42.1700  19.8700  35.9300 H     1   SOL   0.4170
5649   HW2  42.2900  21.3500  36.2100 H     1   SOL   0.4170
5650    OW  16.3400  36.0900   6.2800 O     1   SOL  -0.8340
5651   HW1  16.9500  35.3900   6.5200 H     1   SOL   0.4170
5652   HW2  16.8300  36.9000   6.4200 H     1   SOL   0.4170
5653    OW   2.7100  39.4400  21.6300 O     1   SOL  -0.8340
5654   HW1   2.2600  38.9100  22.2900 H     1   SOL   0.4170
5655   HW2   2.2700  39.2100  20.8100 H     1   SOL   0.4170
5656    OW  40.4300  22.2300  15.3600 O     1   SOL  -0.8340
5657   HW1  39.6200  22.0800  14.8800 H     1   SOL   0.4170
5658   HW2  41.0500  21.5900  15.0100 H     1   SOL   0.4170
5659    OW  18.2000  33.7300  12.7600 O     1   SOL  -0.8340
5660   HW1  17.9900  33.0900  13.4400 H     1   SOL   0.4170
5661   HW2  17.4700  33.6700  12.1400 H     1   SOL   0.4170
5662    OW   1.8700  24.7400  11.2400 O     1   SOL  -0.8340
5663   HW1   2.6800  25.1800  10.9800 H     1   SOL   0.4170
5664   HW2   1.7500  24.0500  10.5800 H     1   SOL   0.4170
5665    OW  25.5400  11.7400  15.9900 O     1   SOL  -0.8340
5666   HW1  24.8600  12.4200  15.9600 H     1   SOL   0.4170
5667   HW2  25.8300  11.6500  15.0900 H     1   SOL   0.4170
5668    OW  12.9800   1.7700   9.9000 O     1   SOL  -0.8340
5669   HW1  13.4300   1.0800   9.4200 H     1   SOL   0.4170
5670   HW2  12.6600   2.3700   9.2200 H     1   SOL   0.4170
5671    OW  17.2100  27.4600  13.1900 O     1   SOL  -0.8340
5672   HW1  18.0500  27.2000  13.5700 H     1   SOL   0.4170
5673   HW2  17.3000  28.4100  13.0700 H     1   SOL   0.4170
5674    OW  17.1500  33.7000  30.9000 O     1   SOL  -0.8340
5675   HW1  17.2200  34.4200  31.5300 H     1   SOL   0.4170
5676   HW2  16.4000  33.1900  31.1900 H     1   SOL   0.4170
5677    OW  22.7200  34.1800   9.3100 O     1   SOL  -0.8340
5678   HW1  23.2800  34.3600  10.0700 H     1   SOL   0.4170
5679   HW2  21.8700  33.9700   9.6900 H     1   SOL   0.4170
5680    OW  33.6400  23.1100  17.1000 O     1   SOL  -0.8340
5681   HW1  33.7400  23.1600  18.0500 H     1   SOL   0.4170
5682   HW2  33.7600  22.1900  16.8900 H     1   SOL   0.4170
5683    OW  13.7400  12.4300  32.2000 O     1   SOL  -0.8340
5684   HW1  12.8900  12.5200  31.7700 H     1   SOL   0.4170
5685   HW2  14.3500  12.2600  31.4900 H     1   SOL   0.4170
5686    OW  22.5400   8.4900  26.3900 O     1   SOL  -0.8340
5687   HW1  22.8100   9.4000  26.4900 H     1   SOL   0.4170
5688   HW2  22.8300   8.2400  25.5100 H     1   SOL   0.4170
5689    OW   3.9500  23.0000   6.6800 O     1   SOL  -0.8340
5690   HW1   3.9600  22.4100   7.4400 H     1   SOL   0.4170
5691   HW2   4.7200  23.5500   6.7900 H     1   SOL   0.4170
5692    OW   7.2400  34.3000   6.7200 O     1   SOL  -0.8340
5693   HW1   6.9300  33.9000   7.5300 H     1   SOL   0.4170
5694   HW2   6.5100  34.8600   6.4400 H     1   SOL   0.4170
5695    OW   8.9400  29.1700   6.8400 O     1   SOL  -0.8340
5696   HW1   9.8800  29.2200   6.9700 H     1   SOL   0.4170
5697   HW2   8.6500  30.0800   6.8100 H     1   SOL   0.4170
5698    OW   1.6100  15.1500  13.9400 O     1   SOL  -0.8340
5699   HW1   2.2000  14.8000  13.2700 H     1   SOL   0.4170
5700   HW2   0.7600  15.2000  13.5000 H     1   SOL   0.4170
5701    OW  38.5400  34.2700  16.6500 O     1   SOL  -0.8340
5702   HW1  38.2100  34.4800  15.7800 H     1   SOL   0.4170
5703   HW2  37.7600  34.2500  17.2100 H     1   SOL   0.4170
5704    OW   1.8700  22.2100  15.3800 O     1   SOL  -0.8340
5705   HW1   1.1000  22.4800  15.8800 H     1   SOL   0.4170
5706   HW2   1.5800  22.2400  14.4700 H     1   SOL   0.4170
5707    OW   2.1700  24.9300   6.9500 O     1   SOL  -0.8340
5708   HW1   2.2300  25.7300   6.4300 H     1   SOL   0.4170
5709   HW2   2.8800  24.3700   6.6400 H     1   SOL   0.4170
5710    OW  41.2200  37.2000  41.2200 O     1   SOL  -0.8340
5711   HW1  40.9000  37.9800  41.6700 H     1   SOL   0.4170
5712   HW2  42.1300  37.4100  41.0000 H     1   SOL   0.4170
5713    OW  41.1300  21.8700  20.2400 O     1   SOL  -0.8340
5714   HW1  42.0400  21.9600  20.5200 H     1   SOL   0.4170
5715   HW2  40.6500  21.7000  21.0500 H     1   SOL   0.4170
5716    OW   9.0800  28.3300  14.7100 O     1   SOL  -0.8340
5717   HW1   9.0600  28.1000  13.7800 H     1   SOL   0.4170
5718   HW2   9.2500  27.5000  15.1500 H     1   SOL   0.4170
5719    OW   0.5500   1.4500  34.8900 O     1   SOL  -0.8340
5720   HW1  -0.3700   1.6500  35.0100 H     1   SOL   0.4170
5721   HW2   0.6000   1.0400  34.0200 H     1   SOL   0.4170
5722    OW  28.0200  30.6800  27.4700 O     1   SOL  -0.8340
5723   HW1  28.3600  30.0800  28.1400 H     1   SOL   0.4170
5724   HW2  28.5200  30.4700  26.6900 H     1   SOL   0.4170
5725    OW   8.6900  14.5100  22.8400 O     1   SOL  -0.8340
5726   HW1   8.7500  13.7800  23.4600 H     1   SOL   0.4170
5727   HW2   9.0800  15.2500  23.3000 H     1   SOL   0.4170
5728    OW  13.6300  22.7500  41.0500 O     1   SOL  -0.8340
5729   HW1  14.0200  23.6300  41.0400 H     1   SOL   0.4170
5730   HW2  12.7400  22.8900  41.3700 H     1   SOL   0.4170
5731    OW  18.0900  22.5900  32.4200 O     1   SOL  -0.8340
5732   HW1  18.8100  22.9300  32.9500 H     1   SOL   0.4170
5733   HW2  17.4100  22.3600  33.0500 H     1   SOL   0.4170
5734    OW  23.4000  28.0400  31.1200 O     1   SOL  -0.8340
5735   HW1  23.1300  27.7900  32.0000 H     1   SOL   0.4170
5736   HW2  22.5900  27.9900  30.6000 H     1   SOL   0.4170
5737    OW  37.5000  24.7100  48.5200 O     1   SOL  -0.8340
5738   HW1  37.2000  23.9700  49.0400 H     1   SOL   0.4170
5739   HW2  36.8900  25.4200  48.7300 H     1   SOL   0.4170
5740    OW  28.5200   9.2800  21.0100 O     1   SOL  -0.8340
5741   HW1  27.9700   9.8000  20.4200 H     1   SOL   0.4170
5742   HW2  27.9700   9.1400  21.7800 H     1   SOL   0.4170
5743    OW  34.3000  36.4500  15.3300 O     1   SOL  -0.8340
5744   HW1  34.5200  36.3800  14.4000 H     1   SOL   0.4170
5745   HW2  33.3800  36.7100  15.3300 H     1   SOL   0.4170
5746    OW  37.3600  39.6400  22.0900 O     1   SOL  -0.8340
5747   HW1  36.9000  39.2200  22.8200 H     1   SOL   0.4170
5748   HW2  37.4600  38.9400  21.4400 H     1   SOL   0.4170
5749    OW  10.7400  37.1000  27.9200 O     1   SOL  -0.8340
5750   HW1  10.1000  36.7500  27.3000 H     1   SOL   0.4170
5751   HW2  11.0600  37.9000  27.5000 H     1   SOL   0.4170
5752    OW  13.4600  42.3600  37.2700 O     1   SOL  -0.8340
5753   HW1  13.7800  43.1900  37.6200 H     1   SOL   0.4170
5754   HW2  13.0000  41.9500  38.0100 H     1   SOL   0.4170
5755    OW  21.9700  21.9200  10.7900 O     1   SOL  -0.8340
5756   HW1  22.4900  21.1600  10.5300 H     1   SOL   0.4170
5757   HW2  21.0900  21.5900  10.9100 H     1   SOL   0.4170
5758    OW  40.6500  39.3400  21.8400 O     1   SOL  -0.8340
5759   HW1  40.1900  39.1600  22.6600 H     1   SOL   0.4170
5760   HW2  40.1500  38.8700  21.1700 H     1   SOL   0.4170
5761    OW  11.6900  21.5100  31.8800 O     1   SOL  -0.8340
5762   HW1  10.8700  21.0600  31.6800 H     1   SOL   0.4170
5763   HW2  12.1000  20.9600  32.5500 H     1   SOL   0.4170
5764    OW  12.1700  31.5000  18.7700 O     1   SOL  -0.8340
5765   HW1  11.4700  32.1300  18.6000 H     1   SOL   0.4170
5766   HW2  12.9300  32.0400  19.0000 H     1   SOL   0.4170
5767    OW  19.8600  33.8500  33.3300 O     1   SOL  -0.8340
5768   HW1  19.4800  34.2600  32.5500 H     1   SOL   0.4170
5769   HW2  20.0400  32.9500  33.0600 H     1   SOL   0.4170
5770    OW   4.3700   8.7400  24.8700 O     1   SOL  -0.8340
5771   HW1   5.2600   8.4000  24.7600 H     1   SOL   0.4170
5772   HW2   3.9000   8.0300  25.3100 H     1   SOL   0.4170
5773    OW   9.6700   0.8600  35.7700 O     1   SOL  -0.8340
5774   HW1  10.2900   1.4200  35.3000 H     1   SOL   0.4170
5775   HW2   9.0800   1.4700  36.2100 H     1   SOL   0.4170
5776    OW  24.8500  36.7600  14.8600 O     1   SOL  -0.8340
5777   HW1  24.5400  37.6700  14.8900 H     1   SOL   0.4170
5778   HW2  24.1300  36.2600  15.2500 H     1   SOL   0.4170
5779    OW  27.4200  24.2800  29.0200 O     1   SOL  -0.8340
5780   HW1  26.8200  23.8900  29.6600 H     1   SOL   0.4170
5781   HW2  28.0900  23.6100  28.8800 H     1   SOL   0.4170
5782    OW  38.2600  20.6500  27.8600 O     1   SOL  -0.8340
5783   HW1  38.9800  20.4900  27.2500 H     1   SOL   0.4170
5784   HW2  37.5600  20.9900  27.3200 H     1   SOL   0.4170
5785    OW   6.9200  25.7700  19.2300 O     1   SOL  -0.8340
5786   HW1   7.3100  26.5400  18.8100 H     1   SOL   0.4170
5787   HW2   7.5300  25.5300  19.9200 H     1   SOL   0.4170
5788    OW   9.5600  19.8500  32.0200 O     1   SOL  -0.8340
5789   HW1   9.5400  19.1400  32.6600 H     1   SOL   0.4170
5790   HW2   8.8700  19.6200  31.3900 H     1   SOL   0.4170
5791    OW   9.1400  18.0500   6.8500 O     1   SOL  -0.8340
5792   HW1   8.9200  18.1600   7.7800 H     1   SOL   0.4170
5793   HW2   9.5500  18.8800   6.6000 H     1   SOL   0.4170
5794    OW  13.4500  36.5200  25.9900 O     1   SOL  -0.8340
5795   HW1  14.3700  36.5700  26.2500 H     1   SOL   0.4170
5796   HW2  13.1300  37.4200  26.1000 H     1   SOL   0.4170
5797    OW   2.2400  33.1900  27.6600 O     1   SOL  -0.8340
5798   HW1   2.0500  34.0200  27.2300 H     1   SOL   0.4170
5799   HW2   2.5300  33.4400  28.5400 H     1   SOL   0.4170
5800    OW  29.0900  29.6900  13.8900 O     1   SOL  -0.8340
5801   HW1  28.3100  29.6800  13.3300 H     1   SOL   0.4170
5802   HW2  29.8100  29.8700  13.2900 H     1   SOL   0.4170
5803    OW  21.3600  40.0800  34.5600 O     1   SOL  -0.8340
5804   HW1  21.8700  40.8600  34.8000 H     1   SOL   0.4170
5805   HW2  20.5000  40.4300  34.3000 H     1   SOL   0.4170
5806    OW  23.3800  17.0300  29.6100 O     1   SOL  -0.8340
5807   HW1  23.0400  16.5100  30.3400 H     1   SOL   0.4170
5808   HW2  23.6700  16.3900  28.9600 H     1   SOL   0.4170
5809    OW  16.6700  19.6300  21.4000 O     1   SOL  -0.8340
5810   HW1  17.1400  18.8700  21.7200 H     1   SOL   0.4170
5811   HW2  16.2300  19.9800  22.1800 H     1   SOL   0.4170
5812    OW   6.5200  23.4200  17.6100 O     1   SOL  -0.8340
5813   HW1   5.6600  23.6200  17.2300 H     1   SOL   0.4170
5814   HW2   6.7100  24.1600  18.1800 H     1   SOL   0.4170
5815    OW  33.6900  36.4000  31.7700 O     1   SOL  -0.8340
5816   HW1  34.6100  36.1800  31.9000 H     1   SOL   0.4170
5817   HW2  33.2200  35.8800  32.4300 H     1   SOL   0.4170
5818    OW  20.6300  24.7100  23.1200 O     1   SOL  -0.8340
5819   HW1  19.7400  24.9700  23.3400 H     1   SOL   0.4170
5820   HW2  20.5400  23.8300  22.7600 H     1   SOL   0.4170
5821    OW  11.6200  34.5500  21.6500 O     1   SOL  -0.8340
5822   HW1  11.2600  35.3000  22.1100 H     1   SOL   0.4170
5823   HW2  10.8800  34.1800  21.1800 H     1   SOL   0.4170
5824    OW  20.2600  25.1600  35.6100 O     1   SOL  -0.8340
5825   HW1  19.3300  25.3500  35.5800 H     1   SOL   0.4170
5826   HW2  20.6800  26.0000  35.7700 H     1   SOL   0.4170
5827    OW  12.0800  26.9600  15.6700 O     1   SOL  -0.8340
5828   HW1  12.9300  27.3600  15.8700 H     1   SOL   0.4170
5829   HW2  12.1600  26.6600  14.7700 H     1   SOL   0.4170
5830    OW   7.3500  28.9600  37.5100 O     1   SOL  -0.8340
5831   HW1   6.7400  28.4100  38.0000 H     1   SOL   0.4170
5832   HW2   7.7200  28.3800  36.8500 H     1   SOL   0.4170
5833    OW  13.0000  35.9900  18.6200 O     1   SOL  -0.8340
5834   HW1  13.1500  36.8600  18.2600 H     1   SOL   0.4170
5835   HW2  12.1600  36.0600  19.0900 H     1   SOL   0.4170
5836    OW  10.6700  26.5800  18.4700 O     1   SOL  -0.8340
5837   HW1  10.2700  25.7600  18.1800 H     1   SOL   0.4170
5838   HW2  10.9000  27.0300  17.6600 H     1   SOL   0.4170
5839    OW  20.5800  32.9800  11.1900 O     1   SOL  -0.8340
5840   HW1  21.2800  33.3100  11.7500 H     1   SOL   0.4170
5841   HW2  19.8100  32.9800  11.7500 H     1   SOL   0.4170
5842    OW  10.8300  37.0100  12.0300 O     1   SOL  -0.8340
5843   HW1  10.7900  36.1100  12.3500 H     1   SOL   0.4170
5844   HW2  11.3500  36.9600  11.2300 H     1   SOL   0.4170
5845    OW  27.1300  39.4400  24.8300 O     1   SOL  -0.8340
5846   HW1  27.9800  39.8700  24.8700 H     1   SOL   0.4170
5847   HW2  27.2700  38.5900  25.2600 H     1   SOL   0.4170
5848    OW   8.4500  12.4600  25.7400 O     1   SOL  -0.8340
5849   HW1   8.3000  13.2100  26.3100 H     1   SOL   0.4170
5850   HW2   9.4000  12.3900  25.6600 H     1   SOL   0.4170
5851    OW  20.2400  10.0800  15.1100 O     1   SOL  -0.8340
5852   HW1  20.0900  10.3400  14.2000 H     1   SOL   0.4170
5853   HW2  20.0700   9.1300  15.1200 H     1   SOL   0.4170
5854    OW  13.6800   8.3800  36.7200 O     1   SOL  -0.8340
5855   HW1  14.4700   8.6000  36.2300 H     1   SOL   0.4170
5856   HW2  13.2900   9.2300  36.9500 H     1   SOL   0.4170
5857    OW   6.2100  33.3000  44.7100 O     1   SOL  -0.8340
5858   HW1   6.0700  32.4700  44.2600 H     1   SOL   0.4170
5859   HW2   6.5500  33.0500  45.5700 H     1   SOL   0.4170
5860    OW  40.8400  12.7900  29.7500 O     1   SOL  -0.8340
5861   HW1  41.2900  13.6200  29.6000 H     1   SOL   0.4170
5862   HW2  40.1100  12.7900  29.1200 H     1   SOL   0.4170
5863    OW  34.7800  35.7000  27.4300 O     1   SOL  -0.8340
5864   HW1  34.0600  35.1300  27.7300 H     1   SOL   0.4170
5865   HW2  34.3700  36.5500  27.2900 H     1   SOL   0.4170
5866    OW  18.1000  25.3200  15.3700 O     1   SOL  -0.8340
5867   HW1  18.1900  25.4100  16.3200 H     1   SOL   0.4170
5868   HW2  18.5600  26.0700  15.0100 H     1   SOL   0.4170
5869    OW  15.2400  17.9000  23.0100 O     1   SOL  -0.8340
5870   HW1  15.6300  17.1200  23.4100 H     1   SOL   0.4170
5871   HW2  15.4500  18.6100  23.6100 H     1   SOL   0.4170
5872    OW  28.0200  32.3300  18.2900 O     1   SOL  -0.8340
5873   HW1  28.8800  32.5600  18.6600 H     1   SOL   0.4170
5874   HW2  28.2100  31.6600  17.6400 H     1   SOL   0.4170
5875    OW  21.9400   7.5000  12.0000 O     1   SOL  -0.8340
5876   HW1  21.7200   7.9100  11.1600 H     1   SOL   0.4170
5877   HW2  21.9600   8.2300  12.6200 H     1   SOL   0.4170
5878    OW   3.6400  34.4500  29.6900 O     1   SOL  -0.8340
5879   HW1   4.2900  34.6600  30.3600 H     1   SOL   0.4170
5880   HW2   3.3600  35.3000  29.3500 H     1   SOL   0.4170
5881    OW   7.9300  16.2400  41.8100 O     1   SOL  -0.8340
5882   HW1   8.2300  17.1500  41.7100 H     1   SOL   0.4170
5883   HW2   8.7000  15.7600  42.1000 H     1   SOL   0.4170
5884    OW  38.9900  41.8000  29.4300 O     1   SOL  -0.8340
5885   HW1  39.7900  42.3000  29.5600 H     1   SOL   0.4170
5886   HW2  38.9300  41.2400  30.2100 H     1   SOL   0.4170
5887    OW  19.1000   5.5400  18.6500 O     1   SOL  -0.8340
5888   HW1  19.3900   4.7200  19.0400 H     1   SOL   0.4170
5889   HW2  18.2000   5.6600  18.9700 H     1   SOL   0.4170
5890    OW   4.7300  39.9600  36.8400 O     1   SOL  -0.8340
5891   HW1   4.9700  40.2000  37.7400 H     1   SOL   0.4170
5892   HW2   5.5600  39.9400  36.3700 H     1   SOL   0.4170
5893    OW   8.1800  41.1600  45.1500 O     1   SOL  -0.8340
5894   HW1   7.8000  41.8800  45.6500 H     1   SOL   0.4170
5895   HW2   7.7800  40.3700  45.5100 H     1   SOL   0.4170
5896    OW  20.3300  26.4400  19.7800 O     1   SOL  -0.8340
5897   HW1  21.0400  26.5100  20.4200 H     1   SOL   0.4170
5898   HW2  19.5800  26.8400  20.2100 H     1   SOL   0.4170
5899    OW  10.6900  28.1300  37.6600 O     1   SOL  -0.8340
5900   HW1  10.0600  28.3800  38.3500 H     1   SOL   0.4170
5901   HW2  11.4800  27.9000  38.1400 H     1   SOL   0.4170
5902    OW  14.1100   4.6100  31.8800 O     1   SOL  -0.8340
5903   HW1  14.6500   4.5300  32.6600 H     1   SOL   0.4170
5904   HW2  13.3900   5.1800  32.1500 H     1   SOL   0.4170
5905    OW  17.7700  30.5500  32.5400 O     1   SOL  -0.8340
5906   HW1  17.7300  29.6400  32.2400 H     1   SOL   0.4170
5907   HW2  18.6700  30.8200  32.3600 H     1   SOL   0.4170
5908    OW  17.6500  22.3300  20.8600 O     1   SOL  -0.8340
5909   HW1  16.7100  22.5000  20.8600 H     1   SOL   0.4170
5910   HW2  17.7200  21.3800  20.7500 H     1   SOL   0.4170
5911    OW   3.2800  36.9200  16.0600 O     1   SOL  -0.8340
5912   HW1   3.4300  37.7300  16.5500 H     1   SOL   0.4170
5913   HW2   2.3300  36.8300  16.0400 H     1   SOL   0.4170
5914    OW  20.4200  39.9900  28.8500 O     1   SOL  -0.8340
5915   HW1  20.3800  39.2500  29.4500 H     1   SOL   0.4170
5916   HW2  21.2300  40.4400  29.0600 H     1   SOL   0.4170
5917    OW   1.8700  42.0700  32.6600 O     1   SOL  -0.8340
5918   HW1   2.2300  41.7200  33.4700 H     1   SOL   0.4170
5919   HW2   2.5800  41.9700  32.0200 H     1   SOL   0.4170
5920    OW  14.4300   9.4000  18.1100 O     1   SOL  -0.8340
5921   HW1  15.2800   9.0000  18.2800 H     1   SOL   0.4170
5922   HW2  14.6300  10.3200  17.9200 H     1   SOL   0.4170
5923    OW  18.8500  34.5400  28.9300 O     1   SOL  -0.8340
5924   HW1  18.3600  34.0600  29.6000 H     1   SOL   0.4170
5925   HW2  19.3400  35.2000  29.4100 H     1   SOL   0.4170
5926    OW  11.9800   8.8500  18.9800 O     1   SOL  -0.8340
5927   HW1  11.7800   9.4400  19.7100 H     1   SOL   0.4170
5928   HW2  12.8900   9.0300  18.7700 H     1   SOL   0.4170
5929    OW  12.9200  24.1100  32.5300 O     1   SOL  -0.8340
5930   HW1  12.5300  23.2400  32.4100 H     1   SOL   0.4170
5931   HW2  12.5100  24.4400  33.3300 H     1   SOL   0.4170
5932    OW   9.4200   2.9600  33.3900 O     1   SOL  -0.8340
5933   HW1   9.3200   3.6500  34.0500 H     1   SOL   0.4170
5934   HW2  10.3200   2.6400  33.5100 H     1   SOL   0.4170
5935    OW  22.0700  30.1600  12.4000 O     1   SOL  -0.8340
5936   HW1  21.2500  30.2700  11.9100 H     1   SOL   0.4170
5937   HW2  22.6900  30.7200  11.9500 H     1   SOL   0.4170
5938    OW  38.5400  16.6300  35.4400 O     1   SOL  -0.8340
5939   HW1  37.9300  16.5500  34.7100 H     1   SOL   0.4170
5940   HW2  37.9900  16.9100  36.1800 H     1   SOL   0.4170
5941    OW  11.6600  39.4600  23.8900 O     1   SOL  -0.8340
5942   HW1  10.8800  39.5100  23.3300 H     1   SOL   0.4170
5943   HW2  12.2500  40.1200  23.5400 H     1   SOL   0.4170
5944    OW  42.7900  13.8200  32.0700 O     1   SOL  -0.8340
5945   HW1  42.1900  13.2300  31.6100 H     1   SOL   0.4170
5946   HW2  43.4900  13.2400  32.3800 H     1   SOL   0.4170
5947    OW  40.6000  14.2000  42.3800 O     1   SOL  -0.8340
5948   HW1  41.4300  14.3100  42.8300 H     1   SOL   0.4170
5949   HW2  40.7500  13.5000  41.7500 H     1   SOL   0.4170
5950    OW   7.2600  36.9800  11.7700 O     1   SOL  -0.8340
5951   HW1   7.7900  36.8600  10.9800 H     1   SOL   0.4170
5952   HW2   7.6100  37.7700  12.1800 H     1   SOL   0.4170
5953    OW   3.4500  40.7600  43.9200 O     1   SOL  -0.8340
5954   HW1   3.3400  39.9000  44.3300 H     1   SOL   0.4170
5955   HW2   3.7300  40.5500  43.0200 H     1   SOL   0.4170
5956    OW   0.6400  34.5500  39.9200 O     1   SOL  -0.8340
5957   HW1   0.2400  34.8000  39.0800 H     1   SOL   0.4170
5958   HW2   1.5600  34.4100  39.7000 H     1   SOL   0.4170
5959    OW   7.7800  33.7700  17.4300 O     1   SOL  -0.8340
5960   HW1   7.5300  34.0800  18.3000 H     1   SOL   0.4170
5961   HW2   7.0100  33.2900  17.1200 H     1   SOL   0.4170
5962    OW   4.8700  42.2700  13.7300 O     1   SOL  -0.8340
5963   HW1   4.8300  42.3600  12.7800 H     1   SOL   0.4170
5964   HW2   3.9600  42.4000  14.0200 H     1   SOL   0.4170
5965    OW  17.3000   0.5200  46.8700 O     1   SOL  -0.8340
5966   HW1  18.1700   0.7200  46.5100 H     1   SOL   0.4170
5967   HW2  16.7000   1.0800  46.3700 H     1   SOL   0.4170
5968    OW  17.3100  32.1900  34.5200 O     1   SOL  -0.8340
5969   HW1  17.1900  31.4700  35.1400 H     1   SOL   0.4170
5970   HW2  17.4900  31.7500  33.6800 H     1   SOL   0.4170
5971    OW   7.7000   0.3800  26.9700 O     1   SOL  -0.8340
5972   HW1   7.0400   0.8300  27.5000 H     1   SOL   0.4170
5973   HW2   7.4700  -0.5500  27.0400 H     1   SOL   0.4170
5974    OW  14.5600  14.7600  36.1200 O     1   SOL  -0.8340
5975   HW1  14.7800  13.9300  35.6900 H     1   SOL   0.4170
5976   HW2  14.8600  14.6600  37.0200 H     1   SOL   0.4170
5977    OW  18.2800  18.1900  24.4900 O     1   SOL  -0.8340
5978   HW1  17.9800  19.0500  24.1800 H     1   SOL   0.4170
5979   HW2  18.6900  17.7900  23.7300 H     1   SOL   0.4170
5980    OW  25.7500   2.2100  17.9000 O     1   SOL  -0.8340
5981   HW1  25.9200   2.9800  18.4400 H     1   SOL   0.4170
5982   HW2  25.8900   1.4700  18.4900 H     1   SOL   0.4170
5983    OW  41.2800  12.2500  35.4300 O     1   SOL  -0.8340
5984   HW1  41.2100  11.7600  34.6100 H     1   SOL   0.4170
5985   HW2  41.4300  13.1500  35.1500 H     1   SOL   0.4170
5986    OW   5.5400  33.4100  50.5200 O     1   SOL  -0.8340
5987   HW1   5.2700  33.5200  49.6000 H     1   SOL   0.4170
5988   HW2   6.3700  33.8900  50.5800 H     1   SOL   0.4170
5989    OW  36.5400  17.4800  36.8700 O     1   SOL  -0.8340
5990   HW1  35.8200  17.1600  36.3300 H     1   SOL   0.4170
5991   HW2  36.1400  18.0900  37.4800 H     1   SOL   0.4170
5992    OW  22.7700  22.5700  39.2400 O     1   SOL  -0.8340
5993   HW1  23.4500  21.9100  39.1100 H     1   SOL   0.4170
5994   HW2  22.5600  22.8800  38.3600 H     1   SOL   0.4170
5995    OW  15.3700  29.9800  21.5400 O     1   SOL  -0.8340
5996   HW1  14.4400  29.9000  21.3500 H     1   SOL   0.4170
5997   HW2  15.4600  29.7100  22.4500 H     1   SOL   0.4170
5998    OW   6.6800  20.7900  18.3200 O     1   SOL  -0.8340
5999   HW1   6.4100  20.8200  19.2400 H     1   SOL   0.4170
6000   HW2   6.1200  21.4300  17.8900 H     1   SOL   0.4170
6001    OW  19.0300  15.0700  20.3400 O     1   SOL  -0.8340
6002   HW1  19.5700  15.1600  19.5500 H     1   SOL   0.4170
6003   HW2  19.0900  14.1400  20.5600 H     1   SOL   0.4170
6004    OW  11.5800  31.9600  24.3600 O     1   SOL  -0.8340
6005   HW1  11.9900  32.7700  24.6700 H     1   SOL   0.4170
6006   HW2  10.6700  32.2000  24.2100 H     1   SOL   0.4170
6007    OW   9.2400  11.2900  32.6800 O     1   SOL  -0.8340
6008   HW1   9.2400  11.2500  33.6400 H     1   SOL   0.4170
6009   HW2   8.3300  11.4900  32.4500 H     1   SOL   0.4170
6010    OW  13.7400  27.5800  29.8900 O     1   SOL  -0.8340
6011   HW1  12.9300  27.6200  30.4000 H     1   SOL   0.4170
6012   HW2  14.2400  26.8600  30.3000 H     1   SOL   0.4170
6013    OW  16.4500  10.4300  27.6300 O     1   SOL  -0.8340
6014   HW1  16.1300  10.8200  28.4500 H     1   SOL   0.4170
6015   HW2  15.9700  10.9000  26.9500 H     1   SOL   0.4170
6016    OW  36.3100   0.2900  30.7400 O     1   SOL  -0.8340
6017   HW1  35.3900   0.2700  31.0300 H     1   SOL   0.4170
6018   HW2  36.5700  -0.6300  30.7300 H     1   SOL   0.4170
6019    OW  41.3200   0.5300  30.0900 O     1   SOL  -0.8340
6020   HW1  41.9200   1.0200  29.5300 H     1   SOL   0.4170
6021   HW2  40.9600   1.1900  30.6800 H     1   SOL   0.4170
6022    OW  11.1200  33.5700  27.9400 O     1   SOL  -0.8340
6023   HW1  11.6500  34.2400  27.4900 H     1   SOL   0.4170
6024   HW2  11.7300  33.1400  28.5400 H     1   SOL   0.4170
6025    OW  11.4200  23.8300  35.1700 O     1   SOL  -0.8340
6026   HW1  11.6800  23.1900  35.8400 H     1   SOL   0.4170
6027   HW2  11.1100  24.5800  35.6800 H     1   SOL   0.4170
6028    OW   0.5500  17.5700  25.6900 O     1   SOL  -0.8340
6029   HW1   0.2800  18.4700  25.9000 H     1   SOL   0.4170
6030   HW2   0.9600  17.2600  26.5000 H     1   SOL   0.4170
6031    OW  11.7700  20.5600  28.2600 O     1   SOL  -0.8340
6032   HW1  12.2800  20.1900  28.9800 H     1   SOL   0.4170
6033   HW2  11.3200  21.3100  28.6300 H     1   SOL   0.4170
6034    OW   8.7000  17.3000  14.8100 O     1   SOL  -0.8340
6035   HW1   8.7900  16.4400  15.2100 H     1   SOL   0.4170
6036   HW2   8.5200  17.8900  15.5500 H     1   SOL   0.4170
6037    OW   9.5500  36.6600  25.0400 O     1   SOL  -0.8340
6038   HW1   9.1800  35.7800  25.0100 H     1   SOL   0.4170
6039   HW2   9.8000  36.8500  24.1300 H     1   SOL   0.4170
6040    OW  39.8300  39.3000  42.4600 O     1   SOL  -0.8340
6041   HW1  38.8700  39.3000  42.5200 H     1   SOL   0.4170
6042   HW2  40.1200  39.5000  43.3500 H     1   SOL   0.4170
6043    OW   7.0300  19.0200  30.6000 O     1   SOL  -0.8340
6044   HW1   6.2500  18.5000  30.8100 H     1   SOL   0.4170
6045   HW2   7.2100  18.8200  29.6800 H     1   SOL   0.4170
6046    OW  39.0800  28.6500  23.8000 O     1   SOL  -0.8340
6047   HW1  38.9900  28.7200  22.8500 H     1   SOL   0.4170
6048   HW2  39.4300  27.7700  23.9400 H     1   SOL   0.4170
6049    OW   8.8300  25.6100  14.7900 O     1   SOL  -0.8340
6050   HW1   9.6200  25.3300  15.2500 H     1   SOL   0.4170
6051   HW2   8.2300  24.8700  14.8700 H     1   SOL   0.4170
6052    OW  14.8800  41.6300  48.4000 O     1   SOL  -0.8340
6053   HW1  14.8600  41.1300  47.5800 H     1   SOL   0.4170
6054   HW2  14.1600  42.2500  48.3200 H     1   SOL   0.4170
6055    OW  13.5300  21.5800  26.5300 O     1   SOL  -0.8340
6056   HW1  12.7200  21.2200  26.9000 H     1   SOL   0.4170
6057   HW2  14.1100  20.8300  26.4300 H     1   SOL   0.4170
6058    OW  26.5900   9.3800  16.5700 O     1   SOL  -0.8340
6059   HW1  26.0500   8.8600  15.9800 H     1   SOL   0.4170
6060   HW2  26.2600  10.2800  16.4800 H     1   SOL   0.4170
6061    OW  18.8200  10.3800  17.8800 O     1   SOL  -0.8340
6062   HW1  18.6300   9.4900  17.5800 H     1   SOL   0.4170
6063   HW2  18.9300  10.8900  17.0700 H     1   SOL   0.4170
6064    OW  16.5100   5.7900  19.3700 O     1   SOL  -0.8340
6065   HW1  15.9600   5.9100  18.5900 H     1   SOL   0.4170
6066   HW2  16.6900   6.6800  19.6700 H     1   SOL   0.4170
6067    OW   8.9400  33.3000  21.8100 O     1   SOL  -0.8340
6068   HW1   9.3300  32.4900  21.4900 H     1   SOL   0.4170
6069   HW2   8.7600  33.1400  22.7400 H     1   SOL   0.4170
6070    OW  37.6200  22.9700  17.0500 O     1   SOL  -0.8340
6071   HW1  38.1400  23.3800  17.7400 H     1   SOL   0.4170
6072   HW2  36.9600  23.6300  16.8300 H     1   SOL   0.4170
6073    OW  19.0700  26.7000  46.6800 O     1   SOL  -0.8340
6074   HW1  19.2000  25.8100  47.0200 H     1   SOL   0.4170
6075   HW2  18.9300  26.5700  45.7400 H     1   SOL   0.4170
6076    OW  25.1200  39.0000  17.9000 O     1   SOL  -0.8340
6077   HW1  24.7900  39.3200  18.7500 H     1   SOL   0.4170
6078   HW2  24.4500  39.2800  17.2700 H     1   SOL   0.4170
6079    OW  15.4800  22.7500  12.6400 O     1   SOL  -0.8340
6080   HW1  15.3600  23.5400  13.1800 H     1   SOL   0.4170
6081   HW2  15.7000  23.0800  11.7700 H     1   SOL   0.4170
6082    OW  12.5100  23.8300  25.0700 O     1   SOL  -0.8340
6083   HW1  12.9200  23.1500  25.6000 H     1   SOL   0.4170
6084   HW2  12.5000  23.4700  24.1900 H     1   SOL   0.4170
6085    OW  12.2300  38.9600  26.4800 O     1   SOL  -0.8340
6086   HW1  11.9700  39.0500  25.5600 H     1   SOL   0.4170
6087   HW2  12.9100  39.6100  26.6000 H     1   SOL   0.4170
6088    OW  41.1200  18.9800  23.5400 O     1   SOL  -0.8340
6089   HW1  40.7200  19.8400  23.3900 H     1   SOL   0.4170
6090   HW2  41.8600  18.9500  22.9300 H     1   SOL   0.4170
6091    OW  34.0400  30.8400  28.4300 O     1   SOL  -0.8340
6092   HW1  33.1300  30.5500  28.4300 H     1   SOL   0.4170
6093   HW2  34.4200  30.4400  27.6400 H     1   SOL   0.4170
6094    OW   4.5800  30.2500   9.3100 O     1   SOL  -0.8340
6095   HW1   4.9100  29.3500   9.3400 H     1   SOL   0.4170
6096   HW2   3.8300  30.2100   8.7200 H     1   SOL   0.4170
6097    OW  32.0700  39.7100  15.1300 O     1   SOL  -0.8340
6098   HW1  31.9800  38.7600  15.2500 H     1   SOL   0.4170
6099   HW2  31.6000  40.0900  15.8700 H     1   SOL   0.4170
6100    OW  11.3800   2.4300  29.1100 O     1   SOL  -0.8340
6101   HW1  12.1600   2.1500  29.6000 H     1   SOL   0.4170
6102   HW2  10.6700   2.3900  29.7500 H     1   SOL   0.4170
6103    OW   4.3600  31.8800  19.1600 O     1   SOL  -0.8340
6104   HW1   3.7100  32.5700  19.0200 H     1   SOL   0.4170
6105   HW2   3.9800  31.1100  18.7200 H     1   SOL   0.4170
6106    OW   0.9100  20.9700  32.9300 O     1   SOL  -0.8340
6107   HW1   0.3500  20.2300  33.1600 H     1   SOL   0.4170
6108   HW2   0.3100  21.7100  32.8400 H     1   SOL   0.4170
6109    OW   6.9900  12.3100  31.6500 O     1   SOL  -0.8340
6110   HW1   7.1700  12.7700  30.8300 H     1   SOL   0.4170
6111   HW2   6.1400  12.6600  31.9400 H     1   SOL   0.4170
6112    OW  40.2700  18.6700  35.4400 O     1   SOL  -0.8340
6113   HW1  39.8900  19.1100  36.2000 H     1   SOL   0.4170
6114   HW2  39.8300  17.8200  35.4000 H     1   SOL   0.4170
6115    OW  31.6600  32.1300  25.1200 O     1   SOL  -0.8340
6116   HW1  31.3700  31.6500  25.9000 H     1   SOL   0.4170
6117   HW2  30.8900  32.6400  24.8500 H     1   SOL   0.4170
6118    OW   8.2900  22.8400  21.1400 O     1   SOL  -0.8340
6119   HW1   7.4700  23.3200  21.0500 H     1   SOL   0.4170
6120   HW2   8.9500  23.5200  21.3000 H     1   SOL   0.4170
6121    OW  11.8600  25.5400  22.3700 O     1   SOL  -0.8340
6122   HW1  11.2000  26.2200  22.1900 H     1   SOL   0.4170
6123   HW2  11.4900  25.0400  23.1000 H     1   SOL   0.4170
6124    OW  16.8800  31.6400  23.9000 O     1   SOL  -0.8340
6125   HW1  16.6100  32.3100  23.2700 H     1   SOL   0.4170
6126   HW2  16.5500  31.9600  24.7400 H     1   SOL   0.4170
6127    OW   6.2800  32.0800  25.9600 O     1   SOL  -0.8340
6128   HW1   5.8900  31.3700  26.4800 H     1   SOL   0.4170
6129   HW2   6.0100  32.8800  26.4000 H     1   SOL   0.4170
6130    OW  20.7200  36.1400  30.5900 O     1   SOL  -0.8340
6131   HW1  21.5800  36.1800  30.1900 H     1   SOL   0.4170
6132   HW2  20.5200  37.0500  30.8300 H     1   SOL   0.4170
6133    OW  18.5300  20.5200  30.4300 O     1   SOL  -0.8340
6134   HW1  17.7400  19.9900  30.5000 H     1   SOL   0.4170
6135   HW2  18.3900  21.2500  31.0400 H     1   SOL   0.4170
6136    OW  38.9400  13.3300  27.7000 O     1   SOL  -0.8340
6137   HW1  39.1500  13.3300  26.7700 H     1   SOL   0.4170
6138   HW2  38.1200  13.8200  27.7600 H     1   SOL   0.4170
6139    OW  26.0600  40.2200  20.7400 O     1   SOL  -0.8340
6140   HW1  25.5900  39.8800  21.5000 H     1   SOL   0.4170
6141   HW2  26.9800  40.0400  20.9300 H     1   SOL   0.4170
6142    OW  14.2100  20.9100   9.2000 O     1   SOL  -0.8340
6143   HW1  14.0000  20.8300   8.2700 H     1   SOL   0.4170
6144   HW2  13.9800  21.8100   9.4300 H     1   SOL   0.4170
6145    OW  16.9600  15.2200  12.8100 O     1   SOL  -0.8340
6146   HW1  16.4800  15.1800  13.6300 H     1   SOL   0.4170
6147   HW2  16.3000  15.4100  12.1400 H     1   SOL   0.4170
6148    OW  15.0500  19.2200  47.5900 O     1   SOL  -0.8340
6149   HW1  14.3200  19.2300  48.2100 H     1   SOL   0.4170
6150   HW2  15.4500  20.0900  47.6900 H     1   SOL   0.4170
6151    OW  20.8700  31.2700  32.6400 O     1   SOL  -0.8340
6152   HW1  21.6800  31.1500  33.1500 H     1   SOL   0.4170
6153   HW2  21.1700  31.3100  31.7300 H     1   SOL   0.4170
6154    OW  32.7400  33.1200  17.9600 O     1   SOL  -0.8340
6155   HW1  33.2500  32.4500  17.4900 H     1   SOL   0.4170
6156   HW2  32.8600  32.9000  18.8900 H     1   SOL   0.4170
6157    OW  40.5400   4.4200  43.4700 O     1   SOL  -0.8340
6158   HW1  40.0600   5.2300  43.6400 H     1   SOL   0.4170
6159   HW2  41.4600   4.6900  43.4500 H     1   SOL   0.4170
6160    OW  31.4000  30.0400  28.9800 O     1   SOL  -0.8340
6161   HW1  31.3800  30.8500  29.4800 H     1   SOL   0.4170
6162   HW2  30.6300  29.5500  29.2900 H     1   SOL   0.4170
6163    OW  12.6900   7.7800  12.7200 O     1   SOL  -0.8340
6164   HW1  12.3700   7.3800  13.5300 H     1   SOL   0.4170
6165   HW2  11.8900   8.0600  12.2600 H     1   SOL   0.4170
6166    OW  31.5800  35.6100  37.4000 O     1   SOL  -0.8340
6167   HW1  31.4600  34.7400  37.0400 H     1   SOL   0.4170
6168   HW2  31.5300  36.2000  36.6400 H     1   SOL   0.4170
6169    OW  22.5800  26.7500  25.6700 O     1   SOL  -0.8340
6170   HW1  23.1700  27.4900  25.8500 H     1   SOL   0.4170
6171   HW2  22.9300  26.3600  24.8600 H     1   SOL   0.4170
6172    OW  22.4900  34.6600  33.6100 O     1   SOL  -0.8340
6173   HW1  22.6300  34.4800  32.6800 H     1   SOL   0.4170
6174   HW2  21.6000  34.3400  33.7800 H     1   SOL   0.4170
6175    OW  12.0400  17.5800  28.6900 O     1   SOL  -0.8340
6176   HW1  11.6100  17.0300  29.3500 H     1   SOL   0.4170
6177   HW2  11.3300  17.9700  28.1900 H     1   SOL   0.4170
6178    OW   8.2800   9.3700  22.7000 O     1   SOL  -0.8340
6179   HW1   8.7300   9.4000  21.8600 H     1   SOL   0.4170
6180   HW2   8.9700   9.5100  23.3500 H     1   SOL   0.4170
6181    OW  39.3900   4.3400  22.2800 O     1   SOL  -0.8340
6182   HW1  39.0900   3.5000  21.9300 H     1   SOL   0.4170
6183   HW2  38.6100   4.9000  22.2500 H     1   SOL   0.4170
6184    OW   0.7300  36.9700  16.7700 O     1   SOL  -0.8340
6185   HW1  -0.1000  37.4600  16.7200 H     1   SOL   0.4170
6186   HW2   0.6600  36.4800  17.5900 H     1   SOL   0.4170
6187    OW  24.8400  43.0900  10.4700 O     1   SOL  -0.8340
6188   HW1  24.2500  42.7000   9.8200 H     1   SOL   0.4170
6189   HW2  24.9100  42.4200  11.1500 H     1   SOL   0.4170
6190    OW  10.4500  30.3700  27.0600 O     1   SOL  -0.8340
6191   HW1  10.3800  31.2900  27.3200 H     1   SOL   0.4170
6192   HW2  10.0400  30.3300  26.2000 H     1   SOL   0.4170
6193    OW   9.1100  39.4600  26.0500 O     1   SOL  -0.8340
6194   HW1   9.1100  38.6500  25.5300 H     1   SOL   0.4170
6195   HW2  10.0400  39.7100  26.1100 H     1   SOL   0.4170
6196    OW   0.7400  37.7000  10.6900 O     1   SOL  -0.8340
6197   HW1   1.3000  38.4500  10.8800 H     1   SOL   0.4170
6198   HW2   1.2400  36.9400  11.0100 H     1   SOL   0.4170
6199    OW  39.1400  37.7500  20.2100 O     1   SOL  -0.8340
6200   HW1  39.8600  37.6400  19.5800 H     1   SOL   0.4170
6201   HW2  39.0700  36.9000  20.6500 H     1   SOL   0.4170
6202    OW  12.5600  18.3500  23.6300 O     1   SOL  -0.8340
6203   HW1  13.2400  18.3300  22.9600 H     1   SOL   0.4170
6204   HW2  13.0000  18.0600  24.4300 H     1   SOL   0.4170
6205    OW  40.2700  18.7600  45.1600 O     1   SOL  -0.8340
6206   HW1  40.1100  17.8200  45.1000 H     1   SOL   0.4170
6207   HW2  40.9900  18.9200  44.5500 H     1   SOL   0.4170
6208    OW   5.2400  23.0600  38.7100 O     1   SOL  -0.8340
6209   HW1   4.6000  22.5700  39.2200 H     1   SOL   0.4170
6210   HW2   4.9500  22.9500  37.8000 H     1   SOL   0.4170
6211    OW  10.0000  33.8000  52.6500 O     1   SOL  -0.8340
6212   HW1   9.9400  34.7200  52.3700 H     1   SOL   0.4170
6213   HW2   9.8500  33.3000  51.8600 H     1   SOL   0.4170
6214    OW  13.5800  36.4900  47.0400 O     1   SOL  -0.8340
6215   HW1  13.1600  35.6500  46.8600 H     1   SOL   0.4170
6216   HW2  13.0500  36.8700  47.7500 H     1   SOL   0.4170
6217    OW  19.4800   2.8200  42.6100 O     1   SOL  -0.8340
6218   HW1  18.7800   2.5500  43.1900 H     1   SOL   0.4170
6219   HW2  19.5700   2.1000  41.9900 H     1   SOL   0.4170
6220    OW   9.2700  25.4300  65.8200 O     1   SOL  -0.8340
6221   HW1   9.8700  26.1400  65.5700 H     1   SOL   0.4170
6222   HW2   9.3200  25.4000  66.7800 H     1   SOL   0.4170
6223    OW  28.9600  27.5900  68.2300 O     1   SOL  -0.8340
6224   HW1  28.2300  27.3900  67.6500 H     1   SOL   0.4170
6225   HW2  29.3200  26.7300  68.4700 H     1   SOL   0.4170
6226    OW  33.0400  37.1300  41.1900 O     1   SOL  -0.8340
6227   HW1  33.2200  37.2900  42.1100 H     1   SOL   0.4170
6228   HW2  32.1300  37.3800  41.0700 H     1   SOL   0.4170
6229    OW   6.8200  21.5800  52.7900 O     1   SOL  -0.8340
6230   HW1   6.9900  21.6800  51.8500 H     1   SOL   0.4170
6231   HW2   6.3700  22.3900  53.0300 H     1   SOL   0.4170
6232    OW  42.2600  26.1100  51.0100 O     1   SOL  -0.8340
6233   HW1  41.4300  26.3400  50.6000 H     1   SOL   0.4170
6234   HW2  42.3400  25.1600  50.8800 H     1   SOL   0.4170
6235    OW  15.2100  32.2400  57.8500 O     1   SOL  -0.8340
6236   HW1  15.5000  32.7200  58.6200 H     1   SOL   0.4170
6237   HW2  15.8200  32.5100  57.1600 H     1   SOL   0.4170
6238    OW   3.0800  37.8000  33.4000 O     1   SOL  -0.8340
6239   HW1   2.3100  37.2300  33.4000 H     1   SOL   0.4170
6240   HW2   3.5100  37.6300  34.2300 H     1   SOL   0.4170
6241    OW  12.4900  18.7500  61.5800 O     1   SOL  -0.8340
6242   HW1  12.6200  18.1800  60.8200 H     1   SOL   0.4170
6243   HW2  11.9600  18.2200  62.1800 H     1   SOL   0.4170
6244    OW   2.9400  30.9400  67.4500 O     1   SOL  -0.8340
6245   HW1   2.6500  31.7800  67.1200 H     1   SOL   0.4170
6246   HW2   2.5200  30.8600  68.3100 H     1   SOL   0.4170
6247    OW  11.2800   1.1400  22.8600 O     1   SOL  -0.8340
6248   HW1  11.6400   0.8300  23.6900 H     1   SOL   0.4170
6249   HW2  11.9000   1.8100  22.5700 H     1   SOL   0.4170
6250    OW  30.7100  13.7900  50.1700 O     1   SOL  -0.8340
6251   HW1  30.9900  12.9000  50.3800 H     1   SOL   0.4170
6252   HW2  29.9500  13.9400  50.7300 H     1   SOL   0.4170
6253    OW  24.6000  12.8900  44.8900 O     1   SOL  -0.8340
6254   HW1  25.2000  12.3100  45.3700 H     1   SOL   0.4170
6255   HW2  24.8700  13.7700  45.1500 H     1   SOL   0.4170
6256    OW  14.6000  25.3100  22.0500 O     1   SOL  -0.8340
6257   HW1  14.9900  26.0000  21.5200 H     1   SOL   0.4170
6258   HW2  13.6700  25.5200  22.0700 H     1   SOL   0.4170
6259    OW  14.4400  31.1500  51.5400 O     1   SOL  -0.8340
6260   HW1  14.8000  30.7000  50.7700 H     1   SOL   0.4170
6261   HW2  13.5000  30.9600  51.5200 H     1   SOL   0.4170
6262    OW  24.4600  27.9800  46.4700 O     1   SOL  -0.8340
6263   HW1  23.6500  28.1500  46.0000 H     1   SOL   0.4170
6264   HW2  24.2900  27.1600  46.9400 H     1   SOL   0.4170
6265    OW  11.4000  40.1100  41.3200 O     1   SOL  -0.8340
6266   HW1  10.5700  39.9000  41.7500 H     1   SOL   0.4170
6267   HW2  12.0400  39.5300  41.7300 H     1   SOL   0.4170
6268    OW   2.5000  18.4200  40.4700 O     1   SOL  -0.8340
6269   HW1   2.5500  18.6500  39.5500 H     1   SOL   0.4170
6270   HW2   1.5900  18.6000  40.7100 H     1   SOL   0.4170
6271    OW  13.4100  32.0700  28.8900 O     1   SOL  -0.8340
6272   HW1  13.8900  32.0700  29.7200 H     1   SOL   0.4170
6273   HW2  13.8000  31.3700  28.3800 H     1   SOL   0.4170
6274    OW  25.1700  22.8200  47.2600 O     1   SOL  -0.8340
6275   HW1  25.4200  22.4200  48.1000 H     1   SOL   0.4170
6276   HW2  24.4700  22.2600  46.9300 H     1   SOL   0.4170
6277    OW  40.7300  40.1700  35.7500 O     1   SOL  -0.8340
6278   HW1  41.5500  40.2900  35.2700 H     1   SOL   0.4170
6279   HW2  40.9700  39.6000  36.4800 H     1   SOL   0.4170
6280    OW  41.1200  17.3900  38.8000 O     1   SOL  -0.8340
6281   HW1  41.6700  16.8100  38.2600 H     1   SOL   0.4170
6282   HW2  40.6600  17.9300  38.1600 H     1   SOL   0.4170
6283    OW   8.9800  32.3900  50.1100 O     1   SOL  -0.8340
6284   HW1   9.1100  31.7500  49.4100 H     1   SOL   0.4170
6285   HW2   8.6300  33.1700  49.6700 H     1   SOL   0.4170
6286    OW  10.0500  25.4100  40.5100 O     1   SOL  -0.8340
6287   HW1  10.3800  24.6500  40.0300 H     1   SOL   0.4170
6288   HW2   9.1800  25.5600  40.1400 H     1   SOL   0.4170
6289    OW  23.4100  10.2800  42.9600 O     1   SOL  -0.8340
6290   HW1  24.2900   9.9100  42.8800 H     1   SOL   0.4170
6291   HW2  22.8500   9.6400  42.5300 H     1   SOL   0.4170
6292    OW   0.3600   8.7300  24.0200 O     1   SOL  -0.8340
6293   HW1   0.5300   8.0300  23.3900 H     1   SOL   0.4170
6294   HW2   0.7800   9.5000  23.6400 H     1   SOL   0.4170
6295    OW  15.8500  38.6700  34.8700 O     1   SOL  -0.8340
6296   HW1  15.1200  39.1300  35.3000 H     1   SOL   0.4170
6297   HW2  15.4200  38.0100  34.3300 H     1   SOL   0.4170
6298    OW  39.7500  22.0100  57.0500 O     1   SOL  -0.8340
6299   HW1  39.1100  21.3000  57.0300 H     1   SOL   0.4170
6300   HW2  40.1100  22.0500  56.1700 H     1   SOL   0.4170
6301    OW   3.4800  35.4100  60.2600 O     1   SOL  -0.8340
6302   HW1   3.2100  34.5200  60.0600 H     1   SOL   0.4170
6303   HW2   3.2400  35.9200  59.4900 H     1   SOL   0.4170
6304    OW   5.4600  29.9800  57.4700 O     1   SOL  -0.8340
6305   HW1   5.6900  30.7300  56.9300 H     1   SOL   0.4170
6306   HW2   5.0000  30.3500  58.2200 H     1   SOL   0.4170
6307    OW  17.5400  24.6500  74.1500 O     1   SOL  -0.8340
6308   HW1  17.1100  25.0600  74.9100 H     1   SOL   0.4170
6309   HW2  16.8600  24.0800  73.7900 H     1   SOL   0.4170
6310    OW   6.5400   3.4900  54.2400 O     1   SOL  -0.8340
6311   HW1   6.5000   2.9600  53.4500 H     1   SOL   0.4170
6312   HW2   5.6400   3.7600  54.3900 H     1   SOL   0.4170
6313    OW   3.3500   5.5100  43.9500 O     1   SOL  -0.8340
6314   HW1   2.8800   6.2400  43.5500 H     1   SOL   0.4170
6315   HW2   4.2700   5.7000  43.7900 H     1   SOL   0.4170
6316    OW   6.5700  28.8500  53.8100 O     1   SOL  -0.8340
6317   HW1   6.5300  29.1700  52.9100 H     1   SOL   0.4170
6318   HW2   7.4800  29.0100  54.0700 H     1   SOL   0.4170
6319    OW   2.8400  30.6900  40.9900 O     1   SOL  -0.8340
6320   HW1   3.6100  31.2600  40.9700 H     1   SOL   0.4170
6321   HW2   2.1000  31.2800  40.9100 H     1   SOL   0.4170
6322    OW  11.8100  29.7400  46.9400 O     1   SOL  -0.8340
6323   HW1  12.7000  29.8800  46.6000 H     1   SOL   0.4170
6324   HW2  11.4200  29.1200  46.3200 H     1   SOL   0.4170
6325    OW  16.9500  35.1900  53.9200 O     1   SOL  -0.8340
6326   HW1  16.5300  35.8700  53.4000 H     1   SOL   0.4170
6327   HW2  16.5300  34.3800  53.6200 H     1   SOL   0.4170
6328    OW   3.1700  31.5100  45.5600 O     1   SOL  -0.8340
6329   HW1   2.6000  30.8900  46.0200 H     1   SOL   0.4170
6330   HW2   2.7600  31.6100  44.7000 H     1   SOL   0.4170
6331    OW   1.8700  25.1400  46.0100 O     1   SOL  -0.8340
6332   HW1   1.4000  25.2900  46.8300 H     1   SOL   0.4170
6333   HW2   1.2000  25.2300  45.3300 H     1   SOL   0.4170
6334    OW   6.8500   0.2900  35.1100 O     1   SOL  -0.8340
6335   HW1   6.5800   0.3200  36.0300 H     1   SOL   0.4170
6336   HW2   7.0700   1.1900  34.9000 H     1   SOL   0.4170
6337    OW  28.9400  41.0000  33.3400 O     1   SOL  -0.8340
6338   HW1  28.1300  40.5300  33.1400 H     1   SOL   0.4170
6339   HW2  28.7300  41.4900  34.1400 H     1   SOL   0.4170
6340    OW  12.9500  24.0900  29.4700 O     1   SOL  -0.8340
6341   HW1  12.1600  24.0500  28.9500 H     1   SOL   0.4170
6342   HW2  12.6900  24.5400  30.2800 H     1   SOL   0.4170
6343    OW  23.6500  24.4800  34.1600 O     1   SOL  -0.8340
6344   HW1  24.4500  24.0000  33.9600 H     1   SOL   0.4170
6345   HW2  23.0200  24.2000  33.5000 H     1   SOL   0.4170
6346    OW   2.9800  20.9000  34.7900 O     1   SOL  -0.8340
6347   HW1   3.6400  20.4300  34.2700 H     1   SOL   0.4170
6348   HW2   2.2400  21.0300  34.2000 H     1   SOL   0.4170
6349    OW  28.4700  38.4000  41.6700 O     1   SOL  -0.8340
6350   HW1  29.3300  38.6000  42.0400 H     1   SOL   0.4170
6351   HW2  28.5300  37.4800  41.4100 H     1   SOL   0.4170
6352    OW  18.4800  20.0900  54.4400 O     1   SOL  -0.8340
6353   HW1  18.3700  19.1600  54.2500 H     1   SOL   0.4170
6354   HW2  18.0200  20.2300  55.2700 H     1   SOL   0.4170
6355    OW  19.5800  18.9300  26.9000 O     1   SOL  -0.8340
6356   HW1  18.9900  18.4500  27.4900 H     1   SOL   0.4170
6357   HW2  19.3200  18.6600  26.0200 H     1   SOL   0.4170
6358    OW  21.5900  30.6600  55.8300 O     1   SOL  -0.8340
6359   HW1  21.5500  31.5700  56.0900 H     1   SOL   0.4170
6360   HW2  21.2500  30.6500  54.9300 H     1   SOL   0.4170
6361    OW  34.8900  15.8600  47.9800 O     1   SOL  -0.8340
6362   HW1  34.8400  16.5500  48.6400 H     1   SOL   0.4170
6363   HW2  35.7100  16.0200  47.5200 H     1   SOL   0.4170
6364    OW   9.8600   9.0400  31.0500 O     1   SOL  -0.8340
6365   HW1   9.0100   9.3000  30.7100 H     1   SOL   0.4170
6366   HW2  10.0100   9.6100  31.8000 H     1   SOL   0.4170
6367    OW  39.2600  39.5600  59.6500 O     1   SOL  -0.8340
6368   HW1  38.4000  39.5700  60.0600 H     1   SOL   0.4170
6369   HW2  39.5600  40.4700  59.6800 H     1   SOL   0.4170
6370    OW  16.4500  14.4000  49.1000 O     1   SOL  -0.8340
6371   HW1  17.2400  14.9300  49.2000 H     1   SOL   0.4170
6372   HW2  15.7300  15.0400  49.1200 H     1   SOL   0.4170
6373    OW   9.1500  22.6200  48.3900 O     1   SOL  -0.8340
6374   HW1   8.6400  22.7600  47.5900 H     1   SOL   0.4170
6375   HW2   9.8500  23.2800  48.3400 H     1   SOL   0.4170
6376    OW  42.0800  29.8700  52.7200 O     1   SOL  -0.8340
6377   HW1  42.1900  28.9800  52.4100 H     1   SOL   0.4170
6378   HW2  41.1300  29.9600  52.8400 H     1   SOL   0.4170
6379    OW  15.0600  17.1400  60.1800 O     1   SOL  -0.8340
6380   HW1  15.0600  18.0500  60.4600 H     1   SOL   0.4170
6381   HW2  15.9900  16.9200  60.0700 H     1   SOL   0.4170
6382    OW  14.0600   2.0000  38.4900 O     1   SOL  -0.8340
6383   HW1  14.9600   1.7400  38.2800 H     1   SOL   0.4170
6384   HW2  13.7900   2.5500  37.7500 H     1   SOL   0.4170
6385    OW  10.6800  27.6300  56.1000 O     1   SOL  -0.8340
6386   HW1  10.3100  27.3000  56.9200 H     1   SOL   0.4170
6387   HW2  11.6200  27.6300  56.2500 H     1   SOL   0.4170
6388    OW  15.9400  12.5000  41.2000 O     1   SOL  -0.8340
6389   HW1  15.7600  12.6000  42.1300 H     1   SOL   0.4170
6390   HW2  15.9700  13.3900  40.8600 H     1   SOL   0.4170
6391    OW  27.0500  26.8300  56.2500 O     1   SOL  -0.8340
6392   HW1  27.5600  26.4500  56.9600 H     1   SOL   0.4170
6393   HW2  27.6400  27.4700  55.8400 H     1   SOL   0.4170
6394    OW   3.1400   0.0200  38.0000 O     1   SOL  -0.8340
6395   HW1   2.4900   0.7100  38.0300 H     1   SOL   0.4170
6396   HW2   3.8600   0.3900  37.4900 H     1   SOL   0.4170
6397    OW  40.1900  37.3500  31.2100 O     1   SOL  -0.8340
6398   HW1  40.0100  38.2800  31.2700 H     1   SOL   0.4170
6399   HW2  40.7100  37.2500  30.4200 H     1   SOL   0.4170
6400    OW  11.5800  13.8200  44.7500 O     1   SOL  -0.8340
6401   HW1  12.1800  13.1000  44.9800 H     1   SOL   0.4170
6402   HW2  10.9000  13.7800  45.4200 H     1   SOL   0.4170
6403    OW  17.0700  19.7300  49.7600 O     1   SOL  -0.8340
6404   HW1  16.9300  18.8800  49.3500 H     1   SOL   0.4170
6405   HW2  16.8700  19.5900  50.6900 H     1   SOL   0.4170
6406    OW  16.9000  40.5600  57.6200 O     1   SOL  -0.8340
6407   HW1  16.3900  40.4000  58.4200 H     1   SOL   0.4170
6408   HW2  17.3100  39.7100  57.4300 H     1   SOL   0.4170
6409    OW  10.6600  42.6700  55.8300 O     1   SOL  -0.8340
6410   HW1   9.9000  42.9900  55.3300 H     1   SOL   0.4170
6411   HW2  10.5700  43.0900  56.6800 H     1   SOL   0.4170
6412    OW  41.7400  30.8800  58.0100 O     1   SOL  -0.8340
6413   HW1  41.2500  30.4900  57.2800 H     1   SOL   0.4170
6414   HW2  42.5200  31.2500  57.6000 H     1   SOL   0.4170
6415    OW  15.2800  29.0000  38.1800 O     1   SOL  -0.8340
6416   HW1  14.7700  29.4200  37.4900 H     1   SOL   0.4170
6417   HW2  15.4300  29.6900  38.8200 H     1   SOL   0.4170
6418    OW   0.5800  22.5700  59.7100 O     1   SOL  -0.8340
6419   HW1   0.3600  23.4100  60.1000 H     1   SOL   0.4170
6420   HW2   0.7900  22.7800  58.8000 H     1   SOL   0.4170
6421    OW   7.8900  24.0400  36.8000 O     1   SOL  -0.8340
6422   HW1   7.2700  24.6800  36.4500 H     1   SOL   0.4170
6423   HW2   7.4300  23.2100  36.7600 H     1   SOL   0.4170
6424    OW   9.4100  13.8400  36.7700 O     1   SOL  -0.8340
6425   HW1   8.4700  13.8100  36.9300 H     1   SOL   0.4170
6426   HW2   9.7400  13.0100  37.1300 H     1   SOL   0.4170
6427    OW   9.8200  40.1400  33.4900 O     1   SOL  -0.8340
6428   HW1  10.2700  40.2300  32.6400 H     1   SOL   0.4170
6429   HW2  10.4200  39.6200  34.0200 H     1   SOL   0.4170
6430    OW  13.4200  32.6800  55.6700 O     1   SOL  -0.8340
6431   HW1  13.0700  33.5600  55.7900 H     1   SOL   0.4170
6432   HW2  14.0400  32.5700  56.3900 H     1   SOL   0.4170
6433    OW  21.6600  35.5400  55.4500 O     1   SOL  -0.8340
6434   HW1  20.7300  35.7800  55.3900 H     1   SOL   0.4170
6435   HW2  22.0900  36.1000  54.8100 H     1   SOL   0.4170
6436    OW   8.0800  38.8100  54.6500 O     1   SOL  -0.8340
6437   HW1   8.7000  39.0000  55.3500 H     1   SOL   0.4170
6438   HW2   7.2500  38.6200  55.0900 H     1   SOL   0.4170
6439    OW  13.8700  37.0300  62.4200 O     1   SOL  -0.8340
6440   HW1  14.6300  37.3200  62.9200 H     1   SOL   0.4170
6441   HW2  13.7400  36.1200  62.6900 H     1   SOL   0.4170
6442    OW  19.4100  17.8800  59.5100 O     1   SOL  -0.8340
6443   HW1  19.7800  17.5500  58.6900 H     1   SOL   0.4170
6444   HW2  18.6400  17.3400  59.6600 H     1   SOL   0.4170
6445    OW  23.7000  34.5600  42.3200 O     1   SOL  -0.8340
6446   HW1  24.5700  34.1400  42.3200 H     1   SOL   0.4170
6447   HW2  23.2300  34.1100  43.0200 H     1   SOL   0.4170
6448    OW  42.8000  26.7400  54.7400 O     1   SOL  -0.8340
6449   HW1  42.6300  27.1100  55.6100 H     1   SOL   0.4170
6450   HW2  43.7300  26.5300  54.7500 H     1   SOL   0.4170
6451    OW   4.2200  29.2400  55.1300 O     1   SOL  -0.8340
6452   HW1   4.5100  29.5400  55.9900 H     1   SOL   0.4170
6453   HW2   5.0300  29.1400  54.6300 H     1   SOL   0.4170
6454    OW   5.4700  26.2900  55.1700 O     1   SOL  -0.8340
6455   HW1   5.9800  27.0300  54.8400 H     1   SOL   0.4170
6456   HW2   5.1700  26.5700  56.0400 H     1   SOL   0.4170
6457    OW   9.1300  30.6400  58.1200 O     1   SOL  -0.8340
6458   HW1   9.2900  31.4500  57.6400 H     1   SOL   0.4170
6459   HW2   9.7300  30.0100  57.7300 H     1   SOL   0.4170
6460    OW  19.4000  20.5700  51.5500 O     1   SOL  -0.8340
6461   HW1  20.2700  20.9600  51.5800 H     1   SOL   0.4170
6462   HW2  19.0200  20.7700  52.4000 H     1   SOL   0.4170
6463    OW  26.0400  17.4600  49.8600 O     1   SOL  -0.8340
6464   HW1  26.9300  17.8300  49.8700 H     1   SOL   0.4170
6465   HW2  26.1000  16.6800  50.4200 H     1   SOL   0.4170
6466    OW   0.0200  24.4800  44.0000 O     1   SOL  -0.8340
6467   HW1  -0.6200  24.9400  43.4600 H     1   SOL   0.4170
6468   HW2   0.8700  24.7600  43.6500 H     1   SOL   0.4170
6469    OW   4.0700  37.7800  64.3900 O     1   SOL  -0.8340
6470   HW1   4.6600  37.6300  63.6500 H     1   SOL   0.4170
6471   HW2   3.3200  38.2500  64.0200 H     1   SOL   0.4170
6472    OW   3.5800  37.1300  54.3400 O     1   SOL  -0.8340
6473   HW1   2.8500  36.7300  54.8300 H     1   SOL   0.4170
6474   HW2   3.6500  36.6100  53.5400 H     1   SOL   0.4170
6475    OW  16.3600  32.9100  60.1500 O     1   SOL  -0.8340
6476   HW1  16.2400  33.4100  60.9600 H     1   SOL   0.4170
6477   HW2  16.3700  32.0000  60.4400 H     1   SOL   0.4170
6478    OW  12.3200  11.1500  59.2100 O     1   SOL  -0.8340
6479   HW1  13.1900  11.4900  58.9800 H     1   SOL   0.4170
6480   HW2  12.0400  11.7000  59.9500 H     1   SOL   0.4170
6481    OW  29.1500   1.1400  42.3700 O     1   SOL  -0.8340
6482   HW1  28.7900   1.9300  41.9800 H     1   SOL   0.4170
6483   HW2  29.8500   0.8800  41.7800 H     1   SOL   0.4170
6484    OW  19.7900  21.3900  45.4300 O     1   SOL  -0.8340
6485   HW1  19.1600  20.7500  45.0900 H     1   SOL   0.4170
6486   HW2  20.1800  20.9600  46.1900 H     1   SOL   0.4170
6487    OW  34.9600  35.2300  43.8500 O     1   SOL  -0.8340
6488   HW1  35.0400  34.8300  42.9800 H     1   SOL   0.4170
6489   HW2  34.3100  34.6800  44.3000 H     1   SOL   0.4170
6490    OW  10.2600  34.6700  64.3200 O     1   SOL  -0.8340
6491   HW1  10.7600  33.9100  64.6200 H     1   SOL   0.4170
6492   HW2   9.5700  34.3000  63.7700 H     1   SOL   0.4170
6493    OW   7.7600  14.1500  44.1200 O     1   SOL  -0.8340
6494   HW1   6.9800  14.6800  44.2600 H     1   SOL   0.4170
6495   HW2   8.1800  14.1000  44.9800 H     1   SOL   0.4170
6496    OW  19.3100  33.2800  56.2500 O     1   SOL  -0.8340
6497   HW1  19.1600  34.1700  55.9300 H     1   SOL   0.4170
6498   HW2  19.8200  32.8600  55.5600 H     1   SOL   0.4170
6499    OW   2.4700  27.0900  54.4400 O     1   SOL  -0.8340
6500   HW1   2.9800  26.3300  54.7500 H     1   SOL   0.4170
6501   HW2   3.1100  27.7900  54.3600 H     1   SOL   0.4170
6502    OW  15.4300  32.6500  53.6700 O     1   SOL  -0.8340
6503   HW1  14.7400  32.6600  54.3300 H     1   SOL   0.4170
6504   HW2  15.0400  32.1900  52.9200 H     1   SOL   0.4170
6505    OW   8.7500  26.7300  60.8600 O     1   SOL  -0.8340
6506   HW1   8.2400  27.2900  60.2800 H     1   SOL   0.4170
6507   HW2   9.1400  26.0800  60.2700 H     1   SOL   0.4170
6508    OW  19.5600  33.1000  53.3700 O     1   SOL  -0.8340
6509   HW1  18.7100  33.5300  53.4900 H     1   SOL   0.4170
6510   HW2  19.9800  33.6100  52.6700 H     1   SOL   0.4170
6511    OW  11.5700  31.0000  51.0000 O     1   SOL  -0.8340
6512   HW1  10.9300  30.3600  50.6800 H     1   SOL   0.4170
6513   HW2  11.2200  31.2800  51.8500 H     1   SOL   0.4170
6514    OW  24.4800  26.3100  44.0600 O     1   SOL  -0.8340
6515   HW1  24.8100  26.4400  44.9500 H     1   SOL   0.4170
6516   HW2  25.2600  26.3700  43.5000 H     1   SOL   0.4170
6517    OW  33.5800  16.5600  32.9600 O     1   SOL  -0.8340
6518   HW1  33.1400  15.9400  32.3700 H     1   SOL   0.4170
6519   HW2  32.9000  17.1900  33.1900 H     1   SOL   0.4170
6520    OW  36.0500  28.0900  46.6200 O     1   SOL  -0.8340
6521   HW1  36.5700  28.6700  47.1800 H     1   SOL   0.4170
6522   HW2  35.2500  28.5900  46.4400 H     1   SOL   0.4170
6523    OW  36.9800   6.7300  70.6900 O     1   SOL  -0.8340
6524   HW1  37.7100   6.2100  71.0200 H     1   SOL   0.4170
6525   HW2  36.3300   6.0800  70.4100 H     1   SOL   0.4170
6526    OW  19.4200  29.2000  56.9200 O     1   SOL  -0.8340
6527   HW1  19.7800  28.3200  56.7900 H     1   SOL   0.4170
6528   HW2  19.9900  29.7700  56.4000 H     1   SOL   0.4170
6529    OW   9.3100  33.2200  56.6400 O     1   SOL  -0.8340
6530   HW1   9.1400  32.8200  55.7900 H     1   SOL   0.4170
6531   HW2  10.1100  33.7300  56.5100 H     1   SOL   0.4170
6532    OW   0.7400  37.7200  40.2400 O     1   SOL  -0.8340
6533   HW1   0.9500  36.7800  40.2200 H     1   SOL   0.4170
6534   HW2   1.5200  38.1400  39.8900 H     1   SOL   0.4170
6535    OW  42.4800   8.2900  28.9000 O     1   SOL  -0.8340
6536   HW1  42.9900   7.9600  28.1600 H     1   SOL   0.4170
6537   HW2  42.2400   9.1800  28.6600 H     1   SOL   0.4170
6538    OW  36.9300  25.8800  51.3200 O     1   SOL  -0.8340
6539   HW1  36.7200  26.7300  51.7100 H     1   SOL   0.4170
6540   HW2  36.1500  25.3500  51.4700 H     1   SOL   0.4170
6541    OW  41.1100  36.8800  61.4300 O     1   SOL  -0.8340
6542   HW1  41.7300  37.1800  60.7700 H     1   SOL   0.4170
6543   HW2  40.2700  37.2300  61.1500 H     1   SOL   0.4170
6544    OW  37.4100  28.9300  49.4700 O     1   SOL  -0.8340
6545   HW1  36.7200  28.6800  50.0800 H     1   SOL   0.4170
6546   HW2  37.6400  29.8300  49.7200 H     1   SOL   0.4170
6547    OW  22.9000  31.5800  61.6900 O     1   SOL  -0.8340
6548   HW1  22.3500  32.1300  62.2600 H     1   SOL   0.4170
6549   HW2  22.6500  30.6800  61.9100 H     1   SOL   0.4170
6550    OW   2.5700  21.6400  46.7900 O     1   SOL  -0.8340
6551   HW1   3.2500  21.6000  47.4700 H     1   SOL   0.4170
6552   HW2   1.8000  21.9800  47.2500 H     1   SOL   0.4170
6553    OW  17.4600  34.0100  44.7100 O     1   SOL  -0.8340
6554   HW1  17.8800  34.5900  45.3400 H     1   SOL   0.4170
6555   HW2  16.5900  34.4000  44.5700 H     1   SOL   0.4170
6556    OW  16.4600   1.1200  37.9000 O     1   SOL  -0.8340
6557   HW1  17.1800   1.2400  37.2900 H     1   SOL   0.4170
6558   HW2  16.8500   0.6600  38.6500 H     1   SOL   0.4170
6559    OW   7.5700  33.4900  66.2400 O     1   SOL  -0.8340
6560   HW1   7.3900  34.0100  67.0200 H     1   SOL   0.4170
6561   HW2   8.2600  33.9700  65.7800 H     1   SOL   0.4170
6562    OW  22.6300  37.3800  53.3200 O     1   SOL  -0.8340
6563   HW1  21.8500  37.9200  53.4100 H     1   SOL   0.4170
6564   HW2  23.3600  38.0000  53.2500 H     1   SOL   0.4170
6565    OW  19.8100  16.9200   9.2600 O     1   SOL  -0.8340
6566   HW1  20.3400  17.5100   9.8000 H     1   SOL   0.4170
6567   HW2  19.0000  16.8100   9.7600 H     1   SOL   0.4170
6568    OW   7.8800  42.7400  59.7900 O     1   SOL  -0.8340
6569   HW1   8.2000  43.1200  60.6100 H     1   SOL   0.4170
6570   HW2   6.9300  42.7300  59.8900 H     1   SOL   0.4170
6571    OW  16.6700  36.0300  37.9100 O     1   SOL  -0.8340
6572   HW1  15.7600  35.7600  37.7800 H     1   SOL   0.4170
6573   HW2  16.8900  35.7200  38.7900 H     1   SOL   0.4170
6574    OW  17.2300  33.4100  51.3200 O     1   SOL  -0.8340
6575   HW1  17.5600  32.6200  50.8900 H     1   SOL   0.4170
6576   HW2  16.6000  33.0900  51.9500 H     1   SOL   0.4170
6577    OW   5.6400  34.1500  27.7400 O     1   SOL  -0.8340
6578   HW1   5.1800  34.9900  27.8000 H     1   SOL   0.4170
6579   HW2   5.2900  33.6200  28.4500 H     1   SOL   0.4170
6580    OW  20.2000  16.2200  47.3300 O     1   SOL  -0.8340
6581   HW1  19.4000  16.1500  46.8000 H     1   SOL   0.4170
6582   HW2  20.9100  16.1000  46.7000 H     1   SOL   0.4170
6583    OW   0.8900  41.1900  49.6200 O     1   SOL  -0.8340
6584   HW1   1.2000  40.3700  50.0100 H     1   SOL   0.4170
6585   HW2   0.2600  41.5200  50.2600 H     1   SOL   0.4170
6586    OW  26.1600   9.6600  42.7200 O     1   SOL  -0.8340
6587   HW1  26.2600   9.6200  41.7700 H     1   SOL   0.4170
6588   HW2  27.0100   9.3800  43.0600 H     1   SOL   0.4170
6589    OW  11.3900   3.0200  51.7800 O     1   SOL  -0.8340
6590   HW1  10.6600   3.5900  52.0300 H     1   SOL   0.4170
6591   HW2  11.9400   2.9800  52.5700 H     1   SOL   0.4170
6592    OW  37.6800  37.2300  51.3000 O     1   SOL  -0.8340
6593   HW1  37.9400  37.6400  52.1200 H     1   SOL   0.4170
6594   HW2  38.0100  36.3300  51.3600 H     1   SOL   0.4170
6595    OW  42.3400  19.5000  48.6900 O     1   SOL  -0.8340
6596   HW1  41.5500  19.8900  48.3100 H     1   SOL   0.4170
6597   HW2  42.7600  19.0500  47.9600 H     1   SOL   0.4170
6598    OW  35.2700  38.7800  16.4200 O     1   SOL  -0.8340
6599   HW1  35.3200  39.3400  15.6500 H     1   SOL   0.4170
6600   HW2  35.1300  37.9000  16.0800 H     1   SOL   0.4170
6601    OW  24.5700  29.1000  64.4700 O     1   SOL  -0.8340
6602   HW1  25.4300  28.6700  64.4500 H     1   SOL   0.4170
6603   HW2  24.1400  28.8300  63.6500 H     1   SOL   0.4170
6604    OW   3.6000   0.1000  45.3500 O     1   SOL  -0.8340
6605   HW1   3.5500  -0.8200  45.0700 H     1   SOL   0.4170
6606   HW2   2.9000   0.5300  44.8500 H     1   SOL   0.4170
6607    OW   0.9300  32.9100  70.1500 O     1   SOL  -0.8340
6608   HW1   0.6500  33.0000  69.2400 H     1   SOL   0.4170
6609   HW2   0.2700  32.3500  70.5500 H     1   SOL   0.4170
6610    OW   0.3800  38.2700  36.4400 O     1   SOL  -0.8340
6611   HW1   0.7000  38.4800  35.5600 H     1   SOL   0.4170
6612   HW2   0.5800  39.0500  36.9600 H     1   SOL   0.4170
6613    OW  12.7800  37.8800  42.0100 O     1   SOL  -0.8340
6614   HW1  13.7000  37.9700  41.7600 H     1   SOL   0.4170
6615   HW2  12.7800  37.9200  42.9600 H     1   SOL   0.4170
6616    OW  42.7400  33.6100  45.2200 O     1   SOL  -0.8340
6617   HW1  42.0700  32.9500  45.0700 H     1   SOL   0.4170
6618   HW2  42.2600  34.4200  45.3700 H     1   SOL   0.4170
6619    OW  23.0700  38.1100  67.1000 O     1   SOL  -0.8340
6620   HW1  23.1100  38.0500  68.0600 H     1   SOL   0.4170
6621   HW2  23.9800  38.0200  66.8100 H     1   SOL   0.4170
6622    OW   5.5600  30.5600  44.7000 O     1   SOL  -0.8340
6623   HW1   5.1300  30.0600  44.0000 H     1   SOL   0.4170
6624   HW2   4.8400  30.9100  45.2200 H     1   SOL   0.4170
6625    OW  39.8400   0.5300  40.8800 O     1   SOL  -0.8340
6626   HW1  40.1300  -0.3800  40.7800 H     1   SOL   0.4170
6627   HW2  39.8200   0.6700  41.8300 H     1   SOL   0.4170
6628    OW  20.2200  23.3100  54.8100 O     1   SOL  -0.8340
6629   HW1  19.6300  23.9300  54.3700 H     1   SOL   0.4170
6630   HW2  21.0400  23.7800  54.9100 H     1   SOL   0.4170
6631    OW  37.7600  21.2500  15.0400 O     1   SOL  -0.8340
6632   HW1  37.6800  21.8900  14.3400 H     1   SOL   0.4170
6633   HW2  37.7400  21.7700  15.8500 H     1   SOL   0.4170
6634    OW  24.6800  17.3700  47.3900 O     1   SOL  -0.8340
6635   HW1  23.8600  17.7000  47.7400 H     1   SOL   0.4170
6636   HW2  25.2900  17.3600  48.1300 H     1   SOL   0.4170
6637    OW   6.0600  36.9900  49.0500 O     1   SOL  -0.8340
6638   HW1   5.3500  37.5200  48.6900 H     1   SOL   0.4170
6639   HW2   5.8200  36.0900  48.8400 H     1   SOL   0.4170
6640    OW  10.0800   6.9900  54.4900 O     1   SOL  -0.8340
6641   HW1   9.3000   7.5400  54.5600 H     1   SOL   0.4170
6642   HW2  10.0900   6.4800  55.3100 H     1   SOL   0.4170
6643    OW   9.1600   3.2900  54.8100 O     1   SOL  -0.8340
6644   HW1   9.2400   2.4400  54.3900 H     1   SOL   0.4170
6645   HW2   8.3100   3.6200  54.5300 H     1   SOL   0.4170
6646    OW  12.8300  34.1100  39.8400 O     1   SOL  -0.8340
6647   HW1  12.2800  33.3300  39.8400 H     1   SOL   0.4170
6648   HW2  12.2100  34.8400  39.8100 H     1   SOL   0.4170
6649    OW   8.1000   6.3100  59.3000 O     1   SOL  -0.8340
6650   HW1   8.0400   6.0900  58.3700 H     1   SOL   0.4170
6651   HW2   7.2100   6.5800  59.5400 H     1   SOL   0.4170
6652    OW  14.3000  42.8500  52.2400 O     1   SOL  -0.8340
6653   HW1  13.8400  43.0200  53.0600 H     1   SOL   0.4170
6654   HW2  14.9800  42.2200  52.4700 H     1   SOL   0.4170
6655    OW   7.8700   2.1600  56.8600 O     1   SOL  -0.8340
6656   HW1   8.6200   1.7700  57.2900 H     1   SOL   0.4170
6657   HW2   8.2100   2.5000  56.0300 H     1   SOL   0.4170
6658    OW   7.9700  20.3500  55.1400 O     1   SOL  -0.8340
6659   HW1   7.9800  20.9400  54.3800 H     1   SOL   0.4170
6660   HW2   7.3400  20.7400  55.7400 H     1   SOL   0.4170
6661    OW   8.0400   1.1700  43.1500 O     1   SOL  -0.8340
6662   HW1   8.0000   0.2300  42.9700 H     1   SOL   0.4170
6663   HW2   8.9000   1.4500  42.8100 H     1   SOL   0.4170
6664    OW  26.8700  31.1800  54.4400 O     1   SOL  -0.8340
6665   HW1  26.5500  31.8300  55.0700 H     1   SOL   0.4170
6666   HW2  26.2500  30.4500  54.5200 H     1   SOL   0.4170
6667    OW   8.7200  32.4100  24.6500 O     1   SOL  -0.8340
6668   HW1   7.8600  32.0700  24.8800 H     1   SOL   0.4170
6669   HW2   8.7700  33.2500  25.1000 H     1   SOL   0.4170
6670    OW   3.2100  34.9900  39.0400 O     1   SOL  -0.8340
6671   HW1   3.8400  35.7100  39.0300 H     1   SOL   0.4170
6672   HW2   3.5800  34.3500  38.4400 H     1   SOL   0.4170
6673    OW   5.1800  22.6100  35.8500 O     1   SOL  -0.8340
6674   HW1   5.8900  21.9900  35.7000 H     1   SOL   0.4170
6675   HW2   4.3900  22.1400  35.6000 H     1   SOL   0.4170
6676    OW   8.2200  30.2200  45.8000 O     1   SOL  -0.8340
6677   HW1   7.3700  30.0400  45.4000 H     1   SOL   0.4170
6678   HW2   8.8100  29.5700  45.4200 H     1   SOL   0.4170
6679    OW  18.0900  32.0500  63.4500 O     1   SOL  -0.8340
6680   HW1  17.7200  31.2400  63.1000 H     1   SOL   0.4170
6681   HW2  19.0200  31.8700  63.5600 H     1   SOL   0.4170
6682    OW   3.7700  11.8600  25.6100 O     1   SOL  -0.8340
6683   HW1   3.4700  11.0100  25.2900 H     1   SOL   0.4170
6684   HW2   4.6300  11.6900  25.9800 H     1   SOL   0.4170
6685    OW  35.4000  30.8700  51.4600 O     1   SOL  -0.8340
6686   HW1  34.5200  31.0300  51.1100 H     1   SOL   0.4170
6687   HW2  35.8200  31.7300  51.4600 H     1   SOL   0.4170
6688    OW  22.1600  28.8200  45.2800 O     1   SOL  -0.8340
6689   HW1  22.2200  29.7100  44.9200 H     1   SOL   0.4170
6690   HW2  21.7400  28.3100  44.5900 H     1   SOL   0.4170
6691    OW  11.8600  15.2600  32.0000 O     1   SOL  -0.8340
6692   HW1  11.8100  15.4400  31.0600 H     1   SOL   0.4170
6693   HW2  11.6500  14.3300  32.0700 H     1   SOL   0.4170
6694    OW  15.0900  33.7700  38.0600 O     1   SOL  -0.8340
6695   HW1  14.4700  33.8300  38.7900 H     1   SOL   0.4170
6696   HW2  15.4200  32.8700  38.1000 H     1   SOL   0.4170
6697    OW   0.0400  28.9500  59.3200 O     1   SOL  -0.8340
6698   HW1  -0.3700  29.7800  59.0800 H     1   SOL   0.4170
6699   HW2  -0.0200  28.9100  60.2700 H     1   SOL   0.4170
6700    OW  34.1400  25.0500  48.2500 O     1   SOL  -0.8340
6701   HW1  33.3200  25.1900  47.7700 H     1   SOL   0.4170
6702   HW2  34.0200  24.2100  48.6900 H     1   SOL   0.4170
6703    OW  42.2300  36.3500  54.8800 O     1   SOL  -0.8340
6704   HW1  41.5400  35.7300  55.1200 H     1   SOL   0.4170
6705   HW2  42.8800  36.2800  55.5700 H     1   SOL   0.4170
6706    OW  10.5000  30.3600  35.9200 O     1   SOL  -0.8340
6707   HW1   9.6700  30.2300  35.4500 H     1   SOL   0.4170
6708   HW2  10.7300  29.5000  36.2600 H     1   SOL   0.4170
6709    OW  14.9600  25.6600  57.0000 O     1   SOL  -0.8340
6710   HW1  15.1500  25.7800  57.9300 H     1   SOL   0.4170
6711   HW2  14.3500  24.9300  56.9600 H     1   SOL   0.4170
6712    OW  14.5800  14.8800  57.0400 O     1   SOL  -0.8340
6713   HW1  13.6700  15.0600  57.2600 H     1   SOL   0.4170
6714   HW2  14.8900  14.3200  57.7500 H     1   SOL   0.4170
6715    OW  28.0700  32.1800  35.9500 O     1   SOL  -0.8340
6716   HW1  28.6800  32.6400  36.5200 H     1   SOL   0.4170
6717   HW2  28.6200  31.5200  35.5100 H     1   SOL   0.4170
6718    OW  11.8900  27.7200  63.5400 O     1   SOL  -0.8340
6719   HW1  12.7500  27.3600  63.3400 H     1   SOL   0.4170
6720   HW2  11.7600  27.5400  64.4700 H     1   SOL   0.4170
6721    OW  37.7900  25.0600  61.8800 O     1   SOL  -0.8340
6722   HW1  38.3700  25.6300  61.3700 H     1   SOL   0.4170
6723   HW2  37.5400  24.3600  61.2900 H     1   SOL   0.4170
6724    OW  39.0800  26.4400  59.7300 O     1   SOL  -0.8340
6725   HW1  39.2900  26.2100  58.8300 H     1   SOL   0.4170
6726   HW2  39.9200  26.4100  60.1900 H     1   SOL   0.4170
6727    OW  25.7900  29.6100  57.2800 O     1   SOL  -0.8340
6728   HW1  26.5300  29.4400  57.8700 H     1   SOL   0.4170
6729   HW2  25.9100  30.5200  57.0000 H     1   SOL   0.4170
6730    OW  24.0200  41.4900  68.7700 O     1   SOL  -0.8340
6731   HW1  24.2500  41.0200  67.9700 H     1   SOL   0.4170
6732   HW2  23.9400  42.4000  68.4900 H     1   SOL   0.4170
6733    OW  20.1300  30.4800  53.4100 O     1   SOL  -0.8340
6734   HW1  20.1700  31.4200  53.2500 H     1   SOL   0.4170
6735   HW2  20.2000  30.0900  52.5400 H     1   SOL   0.4170
6736    OW  22.2200  20.9100  64.3700 O     1   SOL  -0.8340
6737   HW1  21.8500  20.7300  65.2400 H     1   SOL   0.4170
6738   HW2  21.5600  21.4500  63.9300 H     1   SOL   0.4170
6739    OW  31.2300  27.8500  64.1800 O     1   SOL  -0.8340
6740   HW1  30.8800  28.5200  64.7600 H     1   SOL   0.4170
6741   HW2  30.5100  27.2400  64.0500 H     1   SOL   0.4170
6742    OW  26.9400  18.4200  54.2300 O     1   SOL  -0.8340
6743   HW1  26.1300  17.9300  54.0800 H     1   SOL   0.4170
6744   HW2  26.8000  18.8800  55.0500 H     1   SOL   0.4170
6745    OW  24.0700  17.6500  71.9100 O     1   SOL  -0.8340
6746   HW1  24.6500  17.4500  71.1700 H     1   SOL   0.4170
6747   HW2  23.3200  18.0900  71.5100 H     1   SOL   0.4170
6748    OW  25.7100  11.7100  72.8200 O     1   SOL  -0.8340
6749   HW1  26.4700  11.3500  73.2800 H     1   SOL   0.4170
6750   HW2  25.5700  12.5700  73.2100 H     1   SOL   0.4170
6751    OW  22.5900  29.9500  74.4800 O     1   SOL  -0.8340
6752   HW1  23.0600  30.7800  74.5800 H     1   SOL   0.4170
6753   HW2  21.7300  30.2000  74.1500 H     1   SOL   0.4170
6754    OW   6.8400  18.6700  60.5000 O     1   SOL  -0.8340
6755   HW1   6.0600  18.1200  60.4700 H     1   SOL   0.4170
6756   HW2   6.8400  19.1400  59.6600 H     1   SOL   0.4170
6757    OW   1.7700  29.3000  56.3200 O     1   SOL  -0.8340
6758   HW1   1.6300  28.3900  56.6000 H     1   SOL   0.4170
6759   HW2   2.6200  29.2800  55.8700 H     1   SOL   0.4170
6760    OW  42.4400  26.8500  67.3400 O     1   SOL  -0.8340
6761   HW1  42.3600  27.7200  66.9500 H     1   SOL   0.4170
6762   HW2  42.3800  26.2600  66.5900 H     1   SOL   0.4170
6763    OW  24.8000  25.5400  48.5600 O     1   SOL  -0.8340
6764   HW1  24.5500  24.9900  49.3100 H     1   SOL   0.4170
6765   HW2  24.9800  24.9200  47.8600 H     1   SOL   0.4170
6766    OW  16.1700  40.8000  53.6800 O     1   SOL  -0.8340
6767   HW1  15.5800  40.0600  53.8500 H     1   SOL   0.4170
6768   HW2  16.3100  41.2000  54.5400 H     1   SOL   0.4170
6769    OW   3.7100  37.7100  50.9200 O     1   SOL  -0.8340
6770   HW1   4.1100  36.9500  51.3400 H     1   SOL   0.4170
6771   HW2   4.4300  38.3400  50.8300 H     1   SOL   0.4170
6772    OW  25.7600   7.7500  59.0800 O     1   SOL  -0.8340
6773   HW1  26.5100   7.2900  59.4600 H     1   SOL   0.4170
6774   HW2  25.3300   7.1000  58.5300 H     1   SOL   0.4170
6775    OW  14.7000  20.1000  62.5300 O     1   SOL  -0.8340
6776   HW1  13.8800  19.8900  62.0700 H     1   SOL   0.4170
6777   HW2  14.4300  20.6200  63.2800 H     1   SOL   0.4170
6778    OW  42.7100   2.3700  67.3600 O     1   SOL  -0.8340
6779   HW1  42.8900   3.1400  66.8100 H     1   SOL   0.4170
6780   HW2  42.0100   1.9100  66.8900 H     1   SOL   0.4170
6781    OW  33.8400  32.1500  53.8200 O     1   SOL  -0.8340
6782   HW1  33.8900  31.2400  53.5300 H     1   SOL   0.4170
6783   HW2  33.2700  32.5800  53.1800 H     1   SOL   0.4170
6784    OW  21.7200  23.6500  58.3000 O     1   SOL  -0.8340
6785   HW1  21.7500  23.4200  57.3700 H     1   SOL   0.4170
6786   HW2  22.6100  23.9500  58.5000 H     1   SOL   0.4170
6787    OW  13.9100  34.3800  35.7000 O     1   SOL  -0.8340
6788   HW1  13.7300  33.4500  35.5800 H     1   SOL   0.4170
6789   HW2  14.2000  34.4600  36.6000 H     1   SOL   0.4170
6790    OW  30.7200  36.6200  67.4700 O     1   SOL  -0.8340
6791   HW1  30.6100  35.8900  66.8600 H     1   SOL   0.4170
6792   HW2  31.3900  36.3200  68.0800 H     1   SOL   0.4170
6793    OW  31.9700  26.7700  58.4700 O     1   SOL  -0.8340
6794   HW1  32.7800  26.5500  58.0100 H     1   SOL   0.4170
6795   HW2  32.2200  27.4400  59.1000 H     1   SOL   0.4170
6796    OW  30.1300  14.2100  76.8300 O     1   SOL  -0.8340
6797   HW1  30.9300  14.5600  77.2200 H     1   SOL   0.4170
6798   HW2  29.5100  14.9300  76.8600 H     1   SOL   0.4170
6799    OW   9.2600  22.3100  66.2600 O     1   SOL  -0.8340
6800   HW1   8.7700  23.1300  66.2200 H     1   SOL   0.4170
6801   HW2   8.6200  21.6700  66.5700 H     1   SOL   0.4170
6802    OW  34.2100  32.1400  65.6500 O     1   SOL  -0.8340
6803   HW1  35.0300  31.6700  65.5100 H     1   SOL   0.4170
6804   HW2  33.5900  31.4700  65.9400 H     1   SOL   0.4170
6805    OW  37.5900  25.8900  74.0000 O     1   SOL  -0.8340
6806   HW1  38.0300  25.6300  74.8100 H     1   SOL   0.4170
6807   HW2  37.4000  25.0600  73.5600 H     1   SOL   0.4170
6808    OW   7.6300  41.4800  66.8600 O     1   SOL  -0.8340
6809   HW1   8.0800  42.1000  66.2800 H     1   SOL   0.4170
6810   HW2   7.1700  40.8900  66.2700 H     1   SOL   0.4170
6811    OW  23.1500  38.7200  72.6700 O     1   SOL  -0.8340
6812   HW1  23.5300  38.2000  73.3700 H     1   SOL   0.4170
6813   HW2  22.8300  39.5100  73.1100 H     1   SOL   0.4170
6814    OW   6.5200  19.0100  64.4200 O     1   SOL  -0.8340
6815   HW1   6.1900  19.8000  64.0100 H     1   SOL   0.4170
6816   HW2   5.7500  18.5900  64.7900 H     1   SOL   0.4170
6817    OW  16.2200  28.8500  50.6300 O     1   SOL  -0.8340
6818   HW1  16.4700  27.9900  50.3000 H     1   SOL   0.4170
6819   HW2  16.5700  28.8800  51.5200 H     1   SOL   0.4170
6820    OW  25.9100  35.2200  61.5000 O     1   SOL  -0.8340
6821   HW1  25.2700  35.8600  61.8300 H     1   SOL   0.4170
6822   HW2  26.7100  35.7300  61.3700 H     1   SOL   0.4170
6823    OW  23.4400  18.8200  67.4300 O     1   SOL  -0.8340
6824   HW1  23.6400  18.8400  68.3600 H     1   SOL   0.4170
6825   HW2  22.6800  19.3900  67.3300 H     1   SOL   0.4170
6826    OW  22.5300  14.5700  73.4700 O     1   SOL  -0.8340
6827   HW1  23.3600  15.0400  73.4400 H     1   SOL   0.4170
6828   HW2  21.9300  15.1700  73.9000 H     1   SOL   0.4170
6829    OW  12.2900  25.9500  58.7500 O     1   SOL  -0.8340
6830   HW1  11.7300  25.4800  59.3600 H     1   SOL   0.4170
6831   HW2  12.5400  25.3000  58.1000 H     1   SOL   0.4170
6832    OW  27.1300  28.1800  63.4300 O     1   SOL  -0.8340
6833   HW1  27.6200  27.3900  63.6600 H     1   SOL   0.4170
6834   HW2  27.5400  28.8700  63.9400 H     1   SOL   0.4170
6835    OW  20.2300  24.4900  65.4100 O     1   SOL  -0.8340
6836   HW1  19.9400  25.3500  65.7300 H     1   SOL   0.4170
6837   HW2  20.8300  24.1800  66.0800 H     1   SOL   0.4170
6838    OW   9.5400  26.1900  76.8100 O     1   SOL  -0.8340
6839   HW1   9.1200  27.0400  76.9700 H     1   SOL   0.4170
6840   HW2   9.9800  25.9700  77.6300 H     1   SOL   0.4170
6841    OW  29.6600  31.2500  53.4300 O     1   SOL  -0.8340
6842   HW1  28.7700  30.9200  53.5400 H     1   SOL   0.4170
6843   HW2  29.5600  32.2100  53.4500 H     1   SOL   0.4170
6844    OW   6.1900  28.6600  73.9800 O     1   SOL  -0.8340
6845   HW1   6.8400  28.0500  73.6200 H     1   SOL   0.4170
6846   HW2   6.5800  29.5200  73.8500 H     1   SOL   0.4170
6847    OW   4.0200  33.9300  76.8700 O     1   SOL  -0.8340
6848   HW1   3.4800  34.7200  76.9700 H     1   SOL   0.4170
6849   HW2   4.9200  34.2600  76.8800 H     1   SOL   0.4170
6850    OW  13.9700  16.2600  77.0400 O     1   SOL  -0.8340
6851   HW1  14.5300  16.2000  76.2700 H     1   SOL   0.4170
6852   HW2  13.6200  15.3800  77.1500 H     1   SOL   0.4170
6853    OW   6.7400  25.3900  51.0100 O     1   SOL  -0.8340
6854   HW1   6.2100  25.7800  50.3200 H     1   SOL   0.4170
6855   HW2   6.6300  24.4400  50.8900 H     1   SOL   0.4170
6856    OW   3.9900  19.4100  62.5200 O     1   SOL  -0.8340
6857   HW1   3.2400  19.3200  61.9200 H     1   SOL   0.4170
6858   HW2   4.5100  20.1200  62.1600 H     1   SOL   0.4170
6859    OW   4.0400  35.1000  73.9800 O     1   SOL  -0.8340
6860   HW1   3.5300  35.0600  74.7900 H     1   SOL   0.4170
6861   HW2   4.2300  34.1900  73.7700 H     1   SOL   0.4170
6862    OW  12.8700  38.7000  60.5700 O     1   SOL  -0.8340
6863   HW1  13.3500  38.1400  61.1700 H     1   SOL   0.4170
6864   HW2  12.5500  38.1100  59.8800 H     1   SOL   0.4170
6865    OW  35.3400  24.6600  71.9700 O     1   SOL  -0.8340
6866   HW1  35.1200  24.2600  71.1300 H     1   SOL   0.4170
6867   HW2  35.9700  24.0600  72.3700 H     1   SOL   0.4170
6868    OW  27.7100  28.9700  42.4300 O     1   SOL  -0.8340
6869   HW1  27.2600  29.1000  43.2600 H     1   SOL   0.4170
6870   HW2  27.6000  28.0400  42.2400 H     1   SOL   0.4170
6871    OW  27.5200  31.3000  70.3900 O     1   SOL  -0.8340
6872   HW1  27.7700  30.3800  70.3000 H     1   SOL   0.4170
6873   HW2  27.1600  31.5400  69.5400 H     1   SOL   0.4170
6874    OW  22.9800  18.8100  62.9700 O     1   SOL  -0.8340
6875   HW1  22.5500  19.0700  62.1600 H     1   SOL   0.4170
6876   HW2  22.9400  19.5900  63.5200 H     1   SOL   0.4170
6877    OW   8.8200  36.5200  76.8600 O     1   SOL  -0.8340
6878   HW1   7.9800  36.7600  77.2400 H     1   SOL   0.4170
6879   HW2   8.9700  37.1600  76.1700 H     1   SOL   0.4170
6880    OW  11.1400  40.7600  58.1700 O     1   SOL  -0.8340
6881   HW1  11.4600  41.2300  58.9400 H     1   SOL   0.4170
6882   HW2  11.7500  40.9800  57.4800 H     1   SOL   0.4170
6883    OW  22.6500  30.8900  65.6100 O     1   SOL  -0.8340
6884   HW1  22.3700  31.5000  64.9200 H     1   SOL   0.4170
6885   HW2  23.2800  30.3100  65.1700 H     1   SOL   0.4170
6886    OW  10.8600  17.1000  62.9800 O     1   SOL  -0.8340
6887   HW1  11.0700  17.4500  63.8500 H     1   SOL   0.4170
6888   HW2   9.9100  17.0100  62.9900 H     1   SOL   0.4170
6889    OW  18.7100  25.6300  54.0400 O     1   SOL  -0.8340
6890   HW1  18.1100  25.9000  54.7400 H     1   SOL   0.4170
6891   HW2  19.0400  26.4500  53.6700 H     1   SOL   0.4170
6892    OW  13.2800  13.3900  69.2700 O     1   SOL  -0.8340
6893   HW1  13.8900  12.8200  69.7400 H     1   SOL   0.4170
6894   HW2  13.0500  14.0800  69.9000 H     1   SOL   0.4170
6895    OW  25.9400  17.6100  60.9000 O     1   SOL  -0.8340
6896   HW1  26.3100  18.4500  60.6200 H     1   SOL   0.4170
6897   HW2  25.3800  17.8400  61.6500 H     1   SOL   0.4170
6898    OW   6.4900  40.0600  64.5800 O     1   SOL  -0.8340
6899   HW1   6.4900  39.3400  65.2100 H     1   SOL   0.4170
6900   HW2   5.6000  40.4000  64.6000 H     1   SOL   0.4170
6901    OW  39.1700  27.6700  72.8000 O     1   SOL  -0.8340
6902   HW1  39.1200  27.2100  71.9600 H     1   SOL   0.4170
6903   HW2  38.4500  27.3000  73.3200 H     1   SOL   0.4170
6904    OW  16.8800  19.8300  65.9600 O     1   SOL  -0.8340
6905   HW1  16.5400  19.3200  65.2200 H     1   SOL   0.4170
6906   HW2  17.6300  20.3000  65.6000 H     1   SOL   0.4170
6907    OW  31.5900  25.5900  61.8600 O     1   SOL  -0.8340
6908   HW1  31.3700  26.4800  62.1300 H     1   SOL   0.4170
6909   HW2  32.5300  25.6100  61.6900 H     1   SOL   0.4170
6910    OW  29.5500  12.2300  71.7000 O     1   SOL  -0.8340
6911   HW1  29.9000  11.4100  72.0400 H     1   SOL   0.4170
6912   HW2  29.5700  12.8300  72.4400 H     1   SOL   0.4170
6913    OW   7.5900  37.4500  71.2700 O     1   SOL  -0.8340
6914   HW1   7.2800  37.0700  72.1000 H     1   SOL   0.4170
6915   HW2   8.0200  38.2700  71.5200 H     1   SOL   0.4170
6916    OW  21.6600  20.7800  49.4700 O     1   SOL  -0.8340
6917   HW1  21.7000  21.3400  50.2500 H     1   SOL   0.4170
6918   HW2  20.7300  20.6700  49.3000 H     1   SOL   0.4170
6919    OW   5.2700  18.5100  77.2100 O     1   SOL  -0.8340
6920   HW1   6.0100  17.9400  77.4200 H     1   SOL   0.4170
6921   HW2   5.6100  19.4000  77.3400 H     1   SOL   0.4170
6922    OW   8.1700  36.9500  68.5900 O     1   SOL  -0.8340
6923   HW1   7.9700  37.0800  69.5200 H     1   SOL   0.4170
6924   HW2   8.0900  36.0000  68.4600 H     1   SOL   0.4170
6925    OW  41.4700  33.3400  62.7000 O     1   SOL  -0.8340
6926   HW1  41.0200  34.1700  62.8600 H     1   SOL   0.4170
6927   HW2  41.9600  33.4900  61.8900 H     1   SOL   0.4170
6928    OW  36.6900  28.7500  63.2000 O     1   SOL  -0.8340
6929   HW1  37.0100  27.9100  63.5500 H     1   SOL   0.4170
6930   HW2  37.3600  29.0100  62.5700 H     1   SOL   0.4170
6931    OW   6.2100  26.8400  57.8500 O     1   SOL  -0.8340
6932   HW1   6.5000  27.6800  58.1900 H     1   SOL   0.4170
6933   HW2   5.6900  26.4600  58.5600 H     1   SOL   0.4170
6934    OW  21.0500  32.7200  68.5600 O     1   SOL  -0.8340
6935   HW1  21.2700  31.7900  68.4700 H     1   SOL   0.4170
6936   HW2  20.1900  32.7200  68.9900 H     1   SOL   0.4170
6937    OW  18.9100  27.2000  65.3200 O     1   SOL  -0.8340
6938   HW1  19.6100  27.8200  65.1100 H     1   SOL   0.4170
6939   HW2  18.2700  27.7100  65.8100 H     1   SOL   0.4170
6940    OW   7.1700  38.9900  60.8500 O     1   SOL  -0.8340
6941   HW1   7.4200  39.3200  59.9900 H     1   SOL   0.4170
6942   HW2   8.0100  38.9000  61.3200 H     1   SOL   0.4170
6943    OW  12.8000   5.1000  63.5100 O     1   SOL  -0.8340
6944   HW1  13.6400   5.2600  63.9400 H     1   SOL   0.4170
6945   HW2  12.6200   5.9200  63.0400 H     1   SOL   0.4170
6946    OW   7.5600  23.4700  58.6800 O     1   SOL  -0.8340
6947   HW1   7.7900  23.6600  59.5900 H     1   SOL   0.4170
6948   HW2   8.0700  24.0900  58.1600 H     1   SOL   0.4170
6949    OW  37.7300  26.0100  69.8300 O     1   SOL  -0.8340
6950   HW1  38.5500  26.0300  70.3200 H     1   SOL   0.4170
6951   HW2  37.7600  26.8000  69.2800 H     1   SOL   0.4170
6952    OW   0.1200  38.6100  67.6900 O     1   SOL  -0.8340
6953   HW1   0.8000  38.1000  67.2400 H     1   SOL   0.4170
6954   HW2   0.6100  39.2800  68.1700 H     1   SOL   0.4170
6955    OW  11.6500  23.5500  67.2900 O     1   SOL  -0.8340
6956   HW1  10.7700  23.2800  67.0500 H     1   SOL   0.4170
6957   HW2  11.8500  23.0700  68.0900 H     1   SOL   0.4170
6958    OW  30.1200  31.2600  60.1600 O     1   SOL  -0.8340
6959   HW1  31.0000  31.6100  60.0100 H     1   SOL   0.4170
6960   HW2  29.6300  31.4800  59.3700 H     1   SOL   0.4170
6961    OW   3.7200  30.8200  64.9300 O     1   SOL  -0.8340
6962   HW1   4.1500  30.0100  64.6500 H     1   SOL   0.4170
6963   HW2   3.4700  30.6500  65.8400 H     1   SOL   0.4170
6964    OW  17.4200  24.1900  58.9500 O     1   SOL  -0.8340
6965   HW1  17.9200  23.9800  58.1500 H     1   SOL   0.4170
6966   HW2  17.4900  25.1400  59.0300 H     1   SOL   0.4170
6967    OW  40.4200  29.8600  73.5200 O     1   SOL  -0.8340
6968   HW1  39.9500  29.0600  73.2700 H     1   SOL   0.4170
6969   HW2  40.7600  29.6700  74.4000 H     1   SOL   0.4170
6970    OW  41.2100  39.4600  71.5500 O     1   SOL  -0.8340
6971   HW1  40.5200  39.4200  72.2200 H     1   SOL   0.4170
6972   HW2  41.6900  38.6300  71.6500 H     1   SOL   0.4170
6973    OW   0.1700  39.2900  60.3600 O     1   SOL  -0.8340
6974   HW1   1.0500  39.4300  60.0100 H     1   SOL   0.4170
6975   HW2   0.3200  38.7900  61.1700 H     1   SOL   0.4170
6976    OW  24.2800  34.9000  71.6500 O     1   SOL  -0.8340
6977   HW1  23.7300  34.8900  72.4400 H     1   SOL   0.4170
6978   HW2  25.1600  35.0600  71.9700 H     1   SOL   0.4170
6979    OW  16.2300  34.0600  62.7700 O     1   SOL  -0.8340
6980   HW1  16.4200  34.9500  63.0500 H     1   SOL   0.4170
6981   HW2  16.8100  33.5100  63.3000 H     1   SOL   0.4170
6982    OW   9.6300  19.1000  68.1800 O     1   SOL  -0.8340
6983   HW1  10.3500  19.6500  67.8900 H     1   SOL   0.4170
6984   HW2   8.9000  19.3200  67.6000 H     1   SOL   0.4170
6985    OW  35.8900  23.4900  76.5600 O     1   SOL  -0.8340
6986   HW1  36.0000  24.4300  76.4400 H     1   SOL   0.4170
6987   HW2  36.5400  23.1000  75.9800 H     1   SOL   0.4170
6988    OW  16.8100  31.6400  76.7500 O     1   SOL  -0.8340
6989   HW1  16.8600  31.3700  75.8400 H     1   SOL   0.4170
6990   HW2  17.7100  31.5700  77.0800 H     1   SOL   0.4170
6991    OW  10.9900  15.9300  76.8400 O     1   SOL  -0.8340
6992   HW1  11.5900  16.6700  76.8900 H     1   SOL   0.4170
6993   HW2  11.5300  15.1900  76.5600 H     1   SOL   0.4170
6994    OW   0.4000  34.8200  65.0700 O     1   SOL  -0.8340
6995   HW1   0.3200  34.1400  64.4000 H     1   SOL   0.4170
6996   HW2  -0.3400  35.4000  64.9100 H     1   SOL   0.4170
6997    OW  12.4200  33.2600  76.7800 O     1   SOL  -0.8340
6998   HW1  12.4200  34.2000  76.9500 H     1   SOL   0.4170
6999   HW2  13.3100  33.0800  76.4600 H     1   SOL   0.4170
7000    OW  28.8700  22.1600  71.5500 O     1   SOL  -0.8340
7001   HW1  29.2600  22.3900  72.3900 H     1   SOL   0.4170
7002   HW2  28.4700  21.3000  71.7000 H     1   SOL   0.4170
7003    OW  19.5500  20.9800  62.3300 O     1   SOL  -0.8340
7004   HW1  20.2500  20.5700  61.8000 H     1   SOL   0.4170
7005   HW2  18.7400  20.7200  61.9000 H     1   SOL   0.4170
7006    OW  34.4300  11.2700  67.1500 O     1   SOL  -0.8340
7007   HW1  33.5400  10.9000  67.1300 H     1   SOL   0.4170
7008   HW2  34.3000  12.2100  67.2200 H     1   SOL   0.4170
7009    OW  16.7500   0.1300  59.7000 O     1   SOL  -0.8340
7010   HW1  16.4600   0.2800  60.6000 H     1   SOL   0.4170
7011   HW2  16.5400  -0.7900  59.5300 H     1   SOL   0.4170
7012    OW  18.0500  22.8600  67.4100 O     1   SOL  -0.8340
7013   HW1  18.5700  22.0900  67.6400 H     1   SOL   0.4170
7014   HW2  18.1200  22.9200  66.4600 H     1   SOL   0.4170
7015    OW  28.4200  26.5700  73.9400 O     1   SOL  -0.8340
7016   HW1  28.2900  27.3600  73.4100 H     1   SOL   0.4170
7017   HW2  29.3500  26.6000  74.1900 H     1   SOL   0.4170
7018    OW  31.8800  28.5900  56.2700 O     1   SOL  -0.8340
7019   HW1  31.8600  27.7700  56.7700 H     1   SOL   0.4170
7020   HW2  32.4500  29.1600  56.7900 H     1   SOL   0.4170
7021    OW  10.3100  23.0300  73.7100 O     1   SOL  -0.8340
7022   HW1   9.9200  22.1700  73.9000 H     1   SOL   0.4170
7023   HW2   9.6300  23.6600  73.9500 H     1   SOL   0.4170
7024    OW  12.8800  24.4300  64.4800 O     1   SOL  -0.8340
7025   HW1  13.4000  24.9500  65.0900 H     1   SOL   0.4170
7026   HW2  13.0900  23.5300  64.6900 H     1   SOL   0.4170
7027    OW  17.5700  16.0800  60.1500 O     1   SOL  -0.8340
7028   HW1  17.0000  15.3800  59.8300 H     1   SOL   0.4170
7029   HW2  18.1500  15.6500  60.7800 H     1   SOL   0.4170
7030    OW  10.4400  24.7900  62.2300 O     1   SOL  -0.8340
7031   HW1  11.1700  24.5500  62.8100 H     1   SOL   0.4170
7032   HW2  10.3100  25.7300  62.3800 H     1   SOL   0.4170
7033    OW  10.6700  41.2700  62.8900 O     1   SOL  -0.8340
7034   HW1  10.0900  40.5100  62.9800 H     1   SOL   0.4170
7035   HW2  10.1600  41.9200  62.4200 H     1   SOL   0.4170
7036    OW  40.5500  16.7400  65.4400 O     1   SOL  -0.8340
7037   HW1  41.1700  16.6500  64.7200 H     1   SOL   0.4170
7038   HW2  40.9200  17.4400  65.9800 H     1   SOL   0.4170
7039    OW  15.1700  22.0200  69.7500 O     1   SOL  -0.8340
7040   HW1  14.6800  22.6500  69.2200 H     1   SOL   0.4170
7041   HW2  15.9800  22.4700  69.9700 H     1   SOL   0.4170
7042    OW  29.3500  12.3600  64.8200 O     1   SOL  -0.8340
7043   HW1  28.4200  12.5100  64.6500 H     1   SOL   0.4170
7044   HW2  29.7800  12.4500  63.9700 H     1   SOL   0.4170
7045    OW   8.9900  27.9000  63.5900 O     1   SOL  -0.8340
7046   HW1   8.7500  27.6800  62.6900 H     1   SOL   0.4170
7047   HW2   9.8200  28.3700  63.5100 H     1   SOL   0.4170
7048    OW   2.0900  28.2500  76.9700 O     1   SOL  -0.8340
7049   HW1   2.6300  28.3900  76.1900 H     1   SOL   0.4170
7050   HW2   1.6200  29.0800  77.0900 H     1   SOL   0.4170
7051    OW   3.6700  18.6600  74.3100 O     1   SOL  -0.8340
7052   HW1   3.9500  18.2700  75.1400 H     1   SOL   0.4170
7053   HW2   3.5600  19.5900  74.5100 H     1   SOL   0.4170
7054    OW  16.3700   3.7500  70.5800 O     1   SOL  -0.8340
7055   HW1  17.3000   4.0000  70.6300 H     1   SOL   0.4170
7056   HW2  16.3800   2.8200  70.3400 H     1   SOL   0.4170
7057    OW   6.7700  31.0800  76.8800 O     1   SOL  -0.8340
7058   HW1   6.0500  31.1300  76.2500 H     1   SOL   0.4170
7059   HW2   6.8300  31.9600  77.2500 H     1   SOL   0.4170
7060    OW  17.6600  26.4700  62.6400 O     1   SOL  -0.8340
7061   HW1  17.3600  25.5600  62.5700 H     1   SOL   0.4170
7062   HW2  18.3400  26.4400  63.3200 H     1   SOL   0.4170
7063    OW  33.5300  23.1300  54.2400 O     1   SOL  -0.8340
7064   HW1  34.4100  23.0400  54.6200 H     1   SOL   0.4170
7065   HW2  32.9900  22.5100  54.7300 H     1   SOL   0.4170
7066    OW  26.1400  29.6300  48.2400 O     1   SOL  -0.8340
7067   HW1  25.3500  29.3200  47.8000 H     1   SOL   0.4170
7068   HW2  26.0000  30.5800  48.3500 H     1   SOL   0.4170
7069    OW  30.0700  22.4700  73.8000 O     1   SOL  -0.8340
7070   HW1  30.5700  23.2600  74.0000 H     1   SOL   0.4170
7071   HW2  30.6600  21.7500  74.0000 H     1   SOL   0.4170
7072    OW  19.3000  34.3900  61.8600 O     1   SOL  -0.8340
7073   HW1  18.4400  34.0000  62.0200 H     1   SOL   0.4170
7074   HW2  19.3900  34.3900  60.9100 H     1   SOL   0.4170
7075    OW  21.6900  29.9900  68.0300 O     1   SOL  -0.8340
7076   HW1  22.0200  30.1300  67.1400 H     1   SOL   0.4170
7077   HW2  21.7500  29.0500  68.1600 H     1   SOL   0.4170
7078    OW  20.7400  26.5900  58.4700 O     1   SOL  -0.8340
7079   HW1  21.4800  26.8700  59.0000 H     1   SOL   0.4170
7080   HW2  20.9100  25.6700  58.2800 H     1   SOL   0.4170
7081    OW  17.2200  34.0200  73.4600 O     1   SOL  -0.8340
7082   HW1  17.9100  34.4800  73.9400 H     1   SOL   0.4170
7083   HW2  16.7300  34.7100  73.0200 H     1   SOL   0.4170
7084    OW   5.8000  29.4000  67.3500 O     1   SOL  -0.8340
7085   HW1   4.9700  29.8700  67.4600 H     1   SOL   0.4170
7086   HW2   5.7700  28.7000  68.0100 H     1   SOL   0.4170
7087    OW  14.2500  23.4900  76.9500 O     1   SOL  -0.8340
7088   HW1  14.8900  24.1900  77.1100 H     1   SOL   0.4170
7089   HW2  13.4000  23.9500  76.9200 H     1   SOL   0.4170
7090    OW  37.8000  25.3000  44.2700 O     1   SOL  -0.8340
7091   HW1  37.0200  25.5300  44.7700 H     1   SOL   0.4170
7092   HW2  38.0700  24.4500  44.6200 H     1   SOL   0.4170
7093    OW   3.9300  36.3400  71.4900 O     1   SOL  -0.8340
7094   HW1   3.5800  35.4900  71.2200 H     1   SOL   0.4170
7095   HW2   3.9400  36.3000  72.4500 H     1   SOL   0.4170
7096    OW   8.7300  31.5900  75.1400 O     1   SOL  -0.8340
7097   HW1   8.8500  32.5300  75.3000 H     1   SOL   0.4170
7098   HW2   8.0500  31.3300  75.7600 H     1   SOL   0.4170
7099    OW  39.2400  33.0700  55.6800 O     1   SOL  -0.8340
7100   HW1  38.3200  33.1000  55.4100 H     1   SOL   0.4170
7101   HW2  39.2200  33.3000  56.6100 H     1   SOL   0.4170
7102    OW   8.6500   0.2800  62.0900 O     1   SOL  -0.8340
7103   HW1   8.3100  -0.0100  62.9400 H     1   SOL   0.4170
7104   HW2   8.8900   1.2000  62.2400 H     1   SOL   0.4170
7105    OW  31.4000  12.4600  66.5400 O     1   SOL  -0.8340
7106   HW1  31.0200  12.2200  67.3800 H     1   SOL   0.4170
7107   HW2  30.6500  12.5000  65.9400 H     1   SOL   0.4170
7108    OW  17.0600  23.5500  44.7700 O     1   SOL  -0.8340
7109   HW1  16.8200  22.6500  45.0000 H     1   SOL   0.4170
7110   HW2  17.3400  23.9400  45.6000 H     1   SOL   0.4170
7111    OW   4.2300  14.0800  67.9700 O     1   SOL  -0.8340
7112   HW1   3.5400  14.3400  67.3500 H     1   SOL   0.4170
7113   HW2   4.1600  14.7200  68.6800 H     1   SOL   0.4170
7114    OW  26.6000  14.8400  55.1700 O     1   SOL  -0.8340
7115   HW1  26.0400  14.3500  54.5700 H     1   SOL   0.4170
7116   HW2  26.9800  14.1800  55.7500 H     1   SOL   0.4170
7117    OW   9.2500   9.7400  50.3500 O     1   SOL  -0.8340
7118   HW1   8.4100   9.7800  50.8200 H     1   SOL   0.4170
7119   HW2   9.4300   8.8100  50.2600 H     1   SOL   0.4170
7120    OW   0.6700  30.0400  68.8400 O     1   SOL  -0.8340
7121   HW1   0.1000  30.3200  68.1300 H     1   SOL   0.4170
7122   HW2   0.2900  30.4500  69.6200 H     1   SOL   0.4170
7123    OW  22.3900  18.4500  50.9900 O     1   SOL  -0.8340
7124   HW1  22.5300  17.7100  50.3900 H     1   SOL   0.4170
7125   HW2  22.3900  19.2200  50.4200 H     1   SOL   0.4170
7126    OW   1.6900  19.0500  72.2300 O     1   SOL  -0.8340
7127   HW1   0.9900  18.4800  72.5600 H     1   SOL   0.4170
7128   HW2   2.4300  18.8800  72.8000 H     1   SOL   0.4170
7129    OW  11.7600   7.7900  62.6900 O     1   SOL  -0.8340
7130   HW1  12.0100   8.0200  61.7900 H     1   SOL   0.4170
7131   HW2  10.9300   7.3300  62.6000 H     1   SOL   0.4170
7132    OW  27.2700  30.2700  74.9700 O     1   SOL  -0.8340
7133   HW1  28.1400  30.5800  74.7300 H     1   SOL   0.4170
7134   HW2  26.7800  30.2700  74.1400 H     1   SOL   0.4170
7135    OW  36.4200  32.6400  60.3800 O     1   SOL  -0.8340
7136   HW1  35.6400  33.1700  60.2500 H     1   SOL   0.4170
7137   HW2  37.1100  33.2700  60.6000 H     1   SOL   0.4170
7138    OW  27.2300  14.4200  25.7000 O     1   SOL  -0.8340
7139   HW1  26.8700  14.7700  24.8900 H     1   SOL   0.4170
7140   HW2  26.9000  14.9900  26.3800 H     1   SOL   0.4170
7141    OW  13.0900  25.8800  67.7200 O     1   SOL  -0.8340
7142   HW1  12.4300  25.1900  67.8000 H     1   SOL   0.4170
7143   HW2  13.8800  25.4200  67.4300 H     1   SOL   0.4170
7144    OW  42.2900   2.7800  48.8700 O     1   SOL  -0.8340
7145   HW1  43.2000   3.0300  49.0000 H     1   SOL   0.4170
7146   HW2  42.3300   1.8500  48.6500 H     1   SOL   0.4170
7147    OW  11.7600  30.8300  54.1600 O     1   SOL  -0.8340
7148   HW1  12.4100  30.1500  54.0200 H     1   SOL   0.4170
7149   HW2  12.2300  31.5300  54.6100 H     1   SOL   0.4170
7150    OW   3.5200  28.5500  74.6300 O     1   SOL  -0.8340
7151   HW1   4.3900  28.5400  74.2500 H     1   SOL   0.4170
7152   HW2   2.9300  28.6400  73.8800 H     1   SOL   0.4170
7153    OW  21.8500  18.1300  70.4900 O     1   SOL  -0.8340
7154   HW1  21.2700  18.8200  70.8200 H     1   SOL   0.4170
7155   HW2  21.2500  17.4200  70.2400 H     1   SOL   0.4170
7156    OW  10.9800  30.9800  76.9200 O     1   SOL  -0.8340
7157   HW1  10.4200  30.8100  76.1600 H     1   SOL   0.4170
7158   HW2  11.4500  31.7900  76.6900 H     1   SOL   0.4170
7159    OW  17.7700  29.5400  62.2900 O     1   SOL  -0.8340
7160   HW1  17.6400  28.5900  62.4000 H     1   SOL   0.4170
7161   HW2  17.1000  29.8000  61.6600 H     1   SOL   0.4170
7162    OW  16.9500  31.4200  73.8900 O     1   SOL  -0.8340
7163   HW1  16.9700  32.3700  73.7400 H     1   SOL   0.4170
7164   HW2  16.0200  31.1900  73.8500 H     1   SOL   0.4170
7165    OW  18.2100  27.3900  76.9800 O     1   SOL  -0.8340
7166   HW1  18.5500  28.2200  76.6600 H     1   SOL   0.4170
7167   HW2  18.9700  26.8100  76.9900 H     1   SOL   0.4170
7168    OW  32.9500  40.6300  74.4100 O     1   SOL  -0.8340
7169   HW1  32.1000  40.5300  73.9800 H     1   SOL   0.4170
7170   HW2  33.4100  39.8200  74.1900 H     1   SOL   0.4170
7171    OW  15.7500  24.2200  66.8900 O     1   SOL  -0.8340
7172   HW1  15.8700  24.0300  65.9600 H     1   SOL   0.4170
7173   HW2  16.4900  23.8000  67.3200 H     1   SOL   0.4170
7174    OW   1.4900  34.5900  51.7700 O     1   SOL  -0.8340
7175   HW1   1.0900  35.4500  51.8800 H     1   SOL   0.4170
7176   HW2   0.8700  34.1000  51.2300 H     1   SOL   0.4170
7177    OW  26.5400  26.8500  60.9000 O     1   SOL  -0.8340
7178   HW1  26.6600  27.4900  61.6000 H     1   SOL   0.4170
7179   HW2  26.2500  26.0600  61.3400 H     1   SOL   0.4170
7180    OW   0.7800  27.0100  57.5300 O     1   SOL  -0.8340
7181   HW1   0.6200  27.6700  58.2000 H     1   SOL   0.4170
7182   HW2   1.6100  26.6100  57.7800 H     1   SOL   0.4170
7183    OW  17.2000  28.9100  46.4000 O     1   SOL  -0.8340
7184   HW1  17.5600  29.4800  47.0700 H     1   SOL   0.4170
7185   HW2  17.8600  28.2100  46.3000 H     1   SOL   0.4170
7186    OW   5.6600  21.1100  77.2200 O     1   SOL  -0.8340
7187   HW1   5.5400  22.0100  77.5300 H     1   SOL   0.4170
7188   HW2   6.4800  21.1300  76.7300 H     1   SOL   0.4170
7189    OW  40.5300  27.5400  47.6900 O     1   SOL  -0.8340
7190   HW1  40.1400  27.5700  48.5600 H     1   SOL   0.4170
7191   HW2  40.3200  26.6700  47.3600 H     1   SOL   0.4170
7192    OW  15.5000  42.2500  62.5300 O     1   SOL  -0.8340
7193   HW1  15.1800  42.1600  63.4300 H     1   SOL   0.4170
7194   HW2  14.7300  42.0700  61.9800 H     1   SOL   0.4170
7195    OW  21.4300  19.3800  60.8600 O     1   SOL  -0.8340
7196   HW1  21.2700  20.0600  60.2000 H     1   SOL   0.4170
7197   HW2  20.7500  18.7200  60.7000 H     1   SOL   0.4170
7198    OW   4.9500  39.3800  53.3600 O     1   SOL  -0.8340
7199   HW1   4.5800  40.2100  53.6600 H     1   SOL   0.4170
7200   HW2   4.3300  38.7200  53.6500 H     1   SOL   0.4170
7201    OW  16.9000  29.5400  57.6200 O     1   SOL  -0.8340
7202   HW1  17.8500  29.4600  57.5400 H     1   SOL   0.4170
7203   HW2  16.6600  30.2000  56.9600 H     1   SOL   0.4170
7204    OW  20.3800  38.2400  72.2000 O     1   SOL  -0.8340
7205   HW1  20.7300  38.1400  71.3200 H     1   SOL   0.4170
7206   HW2  21.0800  38.6600  72.7000 H     1   SOL   0.4170
7207    OW  13.0400  36.8100  74.1800 O     1   SOL  -0.8340
7208   HW1  13.3100  36.2800  74.9300 H     1   SOL   0.4170
7209   HW2  13.8500  37.2300  73.8900 H     1   SOL   0.4170
7210    OW  11.2200  18.1300  65.5300 O     1   SOL  -0.8340
7211   HW1  11.4900  19.0500  65.5500 H     1   SOL   0.4170
7212   HW2  10.8200  17.9800  66.3900 H     1   SOL   0.4170
7213    OW  26.9000  35.1500  72.6200 O     1   SOL  -0.8340
7214   HW1  27.0700  35.1000  73.5600 H     1   SOL   0.4170
7215   HW2  27.7700  35.1400  72.2200 H     1   SOL   0.4170
7216    OW  11.2600  27.4200  66.2000 O     1   SOL  -0.8340
7217   HW1  10.8600  28.1800  66.6200 H     1   SOL   0.4170
7218   HW2  11.7600  27.0000  66.9000 H     1   SOL   0.4170
7219    OW  20.4600  13.4500  53.5900 O     1   SOL  -0.8340
7220   HW1  20.2100  13.7200  54.4700 H     1   SOL   0.4170
7221   HW2  19.8200  13.8800  53.0200 H     1   SOL   0.4170
7222    OW  39.3800  35.5500  54.3300 O     1   SOL  -0.8340
7223   HW1  39.3100  34.8100  54.9300 H     1   SOL   0.4170
7224   HW2  38.6300  36.1000  54.5300 H     1   SOL   0.4170
7225    OW  17.3600  15.7500  68.8700 O     1   SOL  -0.8340
7226   HW1  16.5800  16.3200  68.8300 H     1   SOL   0.4170
7227   HW2  17.1700  15.0500  68.2400 H     1   SOL   0.4170
7228    OW  12.3900  20.2200  73.9100 O     1   SOL  -0.8340
7229   HW1  12.5100  19.2900  73.7200 H     1   SOL   0.4170
7230   HW2  13.1900  20.4700  74.3800 H     1   SOL   0.4170
7231    OW   9.2500  20.1200  71.1500 O     1   SOL  -0.8340
7232   HW1   9.6400  20.4000  70.3200 H     1   SOL   0.4170
7233   HW2   8.3100  20.0800  70.9700 H     1   SOL   0.4170
7234    OW   8.4100  24.7300  74.6400 O     1   SOL  -0.8340
7235   HW1   8.5300  25.1800  75.4800 H     1   SOL   0.4170
7236   HW2   7.4700  24.7300  74.5000 H     1   SOL   0.4170
7237    OW  41.6700  32.8000  76.3700 O     1   SOL  -0.8340
7238   HW1  42.6100  32.9200  76.5400 H     1   SOL   0.4170
7239   HW2  41.2700  33.6200  76.6600 H     1   SOL   0.4170
7240    OW   6.9700  23.6300  77.0900 O     1   SOL  -0.8340
7241   HW1   6.7900  22.9800  76.4100 H     1   SOL   0.4170
7242   HW2   7.9300  23.6400  77.1600 H     1   SOL   0.4170
7243    OW  14.2600  38.2200  77.0200 O     1   SOL  -0.8340
7244   HW1  15.0100  38.8100  76.9700 H     1   SOL   0.4170
7245   HW2  13.5100  38.7600  76.7400 H     1   SOL   0.4170
7246    OW   7.5800  20.0000  66.7600 O     1   SOL  -0.8340
7247   HW1   6.7900  19.7900  67.2500 H     1   SOL   0.4170
7248   HW2   7.3900  19.7200  65.8700 H     1   SOL   0.4170
7249    OW   4.0900  23.9900  77.1700 O     1   SOL  -0.8340
7250   HW1   4.5800  23.9700  77.9900 H     1   SOL   0.4170
7251   HW2   4.7500  24.1600  76.5000 H     1   SOL   0.4170
7252    OW   9.6300  33.8400  76.6300 O     1   SOL  -0.8340
7253   HW1  10.4100  33.4400  77.0200 H     1   SOL   0.4170
7254   HW2   9.6800  34.7700  76.8600 H     1   SOL   0.4170
7255    OW  22.2300  11.8400  67.0100 O     1   SOL  -0.8340
7256   HW1  22.7400  11.1100  67.3500 H     1   SOL   0.4170
7257   HW2  21.4400  11.4400  66.6500 H     1   SOL   0.4170
7258    OW   9.1900  39.6800  77.0700 O     1   SOL  -0.8340
7259   HW1   8.5400  40.3000  77.4100 H     1   SOL   0.4170
7260   HW2   8.7700  39.2800  76.3100 H     1   SOL   0.4170
7261    OW  18.4200  19.8200  77.1700 O     1   SOL  -0.8340
7262   HW1  19.3700  19.8500  77.3100 H     1   SOL   0.4170
7263   HW2  18.1700  20.7500  77.1100 H     1   SOL   0.4170
7264    OW   6.9600  22.8300  50.3000 O     1   SOL  -0.8340
7265   HW1   7.7500  22.7300  49.7600 H     1   SOL   0.4170
7266   HW2   6.2800  23.0900  49.6800 H     1   SOL   0.4170
7267    OW  17.7200  41.6100  71.3100 O     1   SOL  -0.8340
7268   HW1  17.8100  40.6800  71.4800 H     1   SOL   0.4170
7269   HW2  18.6200  41.9500  71.3200 H     1   SOL   0.4170
7270    OW   2.2500  21.5900  76.9400 O     1   SOL  -0.8340
7271   HW1   3.0600  21.9000  77.3500 H     1   SOL   0.4170
7272   HW2   2.4700  21.5000  76.0100 H     1   SOL   0.4170
7273    OW  17.8800  39.1600  72.1500 O     1   SOL  -0.8340
7274   HW1  18.5600  38.5000  72.2800 H     1   SOL   0.4170
7275   HW2  17.0900  38.7600  72.5200 H     1   SOL   0.4170
7276    OW   2.1900  35.9100  76.7000 O     1   SOL  -0.8340
7277   HW1   2.3600  36.8400  76.5200 H     1   SOL   0.4170
7278   HW2   1.2400  35.8400  76.7000 H     1   SOL   0.4170
7279    OW  12.3900  25.3500  77.1800 O     1   SOL  -0.8340
7280   HW1  12.5800  25.8900  76.4100 H     1   SOL   0.4170
7281   HW2  11.5100  25.6200  77.4400 H     1   SOL   0.4170
7282    OW   1.8600  25.5300  76.7100 O     1   SOL  -0.8340
7283   HW1   1.8800  26.4800  76.7900 H     1   SOL   0.4170
7284   HW2   2.6300  25.2200  77.1700 H     1   SOL   0.4170
7285    OW   0.4200  30.3200  76.7600 O     1   SOL  -0.8340
7286   HW1   0.9700  30.8900  77.3000 H     1   SOL   0.4170
7287   HW2  -0.4800  30.5500  77.0000 H     1   SOL   0.4170
7288    OW  19.2500  25.2800  72.3700 O     1   SOL  -0.8340
7289   HW1  19.8900  25.9200  72.6900 H     1   SOL   0.4170
7290   HW2  18.6700  25.1300  73.1200 H     1   SOL   0.4170
7291    OW  16.1500  36.2100  76.8900 O     1   SOL  -0.8340
7292   HW1  15.4100  36.8000  76.9900 H     1   SOL   0.4170
7293   HW2  15.7600  35.3700  76.6400 H     1   SOL   0.4170
7294    OW  41.8500  32.3100  67.9700 O     1   SOL  -0.8340
7295   HW1  42.2800  32.5400  67.1400 H     1   SOL   0.4170
7296   HW2  41.4300  33.1200  68.2500 H     1   SOL   0.4170
7297    OW  15.0700  33.7600  76.9200 O     1   SOL  -0.8340
7298   HW1  15.6500  33.0100  76.8200 H     1   SOL   0.4170
7299   HW2  14.6600  33.6400  77.7700 H     1   SOL   0.4170
7300    OW   1.1200  36.9500  58.5700 O     1   SOL  -0.8340
7301   HW1   1.5800  37.6400  59.0500 H     1   SOL   0.4170
7302   HW2   0.1900  37.1200  58.7500 H     1   SOL   0.4170
7303    OW  19.4100  43.1700  76.3600 O     1   SOL  -0.8340
7304   HW1  19.5000  44.1200  76.4300 H     1   SOL   0.4170
7305   HW2  18.7800  43.0400  75.6500 H     1   SOL   0.4170
7306    OW  40.7900  35.3900  76.9300 O     1   SOL  -0.8340
7307   HW1  41.4900  36.0100  76.7000 H     1   SOL   0.4170
7308   HW2  40.0100  35.9400  77.0300 H     1   SOL   0.4170
7309    OW   3.3900  31.1800  77.0400 O     1   SOL  -0.8340
7310   HW1   3.7900  31.8600  77.5800 H     1   SOL   0.4170
7311   HW2   3.9100  30.3900  77.2100 H     1   SOL   0.4170
7312    OW   1.3000  33.3200  76.7100 O     1   SOL  -0.8340
7313   HW1   2.0800  32.8000  76.5400 H     1   SOL   0.4170
7314   HW2   1.5600  34.2300  76.5500 H     1   SOL   0.4170
7315    OW  29.6800  34.8700  65.8300 O     1   SOL  -0.8340
7316   HW1  29.6000  33.9900  66.2000 H     1   SOL   0.4170
7317   HW2  29.0100  34.9000  65.1400 H     1   SOL   0.4170
7318    OW  34.8800  27.1700  72.5100 O     1   SOL  -0.8340
7319   HW1  34.7500  26.2600  72.2500 H     1   SOL   0.4170
7320   HW2  35.7000  27.1700  73.0100 H     1   SOL   0.4170
7321    OW   5.9900  36.5200  77.1100 O     1   SOL  -0.8340
7322   HW1   5.8300  37.4300  77.3600 H     1   SOL   0.4170
7323   HW2   5.8700  36.5100  76.1600 H     1   SOL   0.4170
7324    OW  25.2800  26.6600  58.5700 O     1   SOL  -0.8340
7325   HW1  25.8000  26.8000  59.3600 H     1   SOL   0.4170
7326   HW2  25.8700  26.8600  57.8500 H     1   SOL   0.4170
7327    OW  11.6700  38.5500  76.5000 O     1   SOL  -0.8340
7328   HW1  11.3900  38.6500  75.5900 H     1   SOL   0.4170
7329   HW2  10.9900  38.9800  77.0200 H     1   SOL   0.4170
7330    OW  17.0500  15.0300  55.4100 O     1   SOL  -0.8340
7331   HW1  16.2400  14.9900  55.9300 H     1   SOL   0.4170
7332   HW2  17.7000  14.5800  55.9400 H     1   SOL   0.4170
7333    OW   9.0600  28.9300  77.1300 O     1   SOL  -0.8340
7334   HW1   9.8200  29.4600  77.3400 H     1   SOL   0.4170
7335   HW2   8.3100  29.5100  77.2900 H     1   SOL   0.4170
7336    OW  12.6000  35.9700  77.2700 O     1   SOL  -0.8340
7337   HW1  11.7500  36.4000  77.3100 H     1   SOL   0.4170
7338   HW2  13.2300  36.6900  77.2500 H     1   SOL   0.4170
7339    OW  16.3100  13.9300  67.1400 O     1   SOL  -0.8340
7340   HW1  15.4900  14.1000  66.6800 H     1   SOL   0.4170
7341   HW2  16.6800  13.1700  66.6900 H     1   SOL   0.4170
7342    OW  11.7900  41.6400  68.1300 O     1   SOL  -0.8340
7343   HW1  11.1700  42.0900  68.7100 H     1   SOL   0.4170
7344   HW2  11.5000  41.8700  67.2500 H     1   SOL   0.4170
7345    OW  35.6900  34.3100  63.3000 O     1   SOL  -0.8340
7346   HW1  35.3000  33.5700  62.8400 H     1   SOL   0.4170
7347   HW2  34.9500  34.8600  63.5400 H     1   SOL   0.4170
7348    OW  36.0700  30.6000  33.2400 O     1   SOL  -0.8340
7349   HW1  35.2900  30.1800  32.8600 H     1   SOL   0.4170
7350   HW2  36.7800  30.3700  32.6400 H     1   SOL   0.4170
7351    OW   7.6000   1.1700   7.0600 O     1   SOL  -0.8340
7352   HW1   7.5300   1.8300   6.3800 H     1   SOL   0.4170
7353   HW2   6.8100   0.6400   6.9700 H     1   SOL   0.4170
7354    OW  22.3100  10.3600  11.9900 O     1   SOL  -0.8340
7355   HW1  21.5500  10.8100  12.3600 H     1   SOL   0.4170
7356   HW2  22.2100  10.4900  11.0400 H     1   SOL   0.4170
7357    OW  42.6100  42.8600  13.9300 O     1   SOL  -0.8340
7358   HW1  42.0400  42.1600  14.2600 H     1   SOL   0.4170
7359   HW2  42.0200  43.6100  13.8200 H     1   SOL   0.4170
7360    OW  40.5100  40.4900  24.9300 O     1   SOL  -0.8340
7361   HW1  40.2500  39.6000  24.6900 H     1   SOL   0.4170
7362   HW2  39.8600  40.7500  25.5800 H     1   SOL   0.4170
7363    OW  41.8000  20.2800  18.1200 O     1   SOL  -0.8340
7364   HW1  41.5500  20.7700  18.9000 H     1   SOL   0.4170
7365   HW2  42.2200  19.4900  18.4600 H     1   SOL   0.4170
7366    OW   9.6400   7.2200  13.7300 O     1   SOL  -0.8340
7367   HW1   9.7600   7.1400  12.7900 H     1   SOL   0.4170
7368   HW2  10.3700   6.7400  14.1100 H     1   SOL   0.4170
7369    OW  42.4000   0.0800   8.4600 O     1   SOL  -0.8340
7370   HW1  43.0400   0.6100   7.9800 H     1   SOL   0.4170
7371   HW2  42.2600  -0.6800   7.9100 H     1   SOL   0.4170
7372    OW   7.0700  37.6600   6.7100 O     1   SOL  -0.8340
7373   HW1   6.9500  38.1300   7.5300 H     1   SOL   0.4170
7374   HW2   7.9000  37.1900   6.8200 H     1   SOL   0.4170
7375    OW  41.2800  39.0000  12.5400 O     1   SOL  -0.8340
7376   HW1  41.6100  39.5900  11.8600 H     1   SOL   0.4170
7377   HW2  41.7300  38.1700  12.3700 H     1   SOL   0.4170
7378    OW   9.4600   6.1200  21.1400 O     1   SOL  -0.8340
7379   HW1   9.7000   6.0700  22.0700 H     1   SOL   0.4170
7380   HW2   9.6300   5.2500  20.7900 H     1   SOL   0.4170
7381    OW   8.9700  36.3300  15.1400 O     1   SOL  -0.8340
7382   HW1   8.1200  36.0600  15.5000 H     1   SOL   0.4170
7383   HW2   8.9300  37.2800  15.1200 H     1   SOL   0.4170
7384    OW  14.3300  37.8800   6.9100 O     1   SOL  -0.8340
7385   HW1  15.2300  37.6200   6.7300 H     1   SOL   0.4170
7386   HW2  14.3400  38.8400   6.8700 H     1   SOL   0.4170
7387    OW   2.1100  41.6800  17.0000 O     1   SOL  -0.8340
7388   HW1   2.6800  40.9300  16.8600 H     1   SOL   0.4170
7389   HW2   1.6800  41.5100  17.8400 H     1   SOL   0.4170
7390    OW   7.1100  38.0200  23.5200 O     1   SOL  -0.8340
7391   HW1   7.4600  37.6800  24.3400 H     1   SOL   0.4170
7392   HW2   6.9500  37.2500  22.9900 H     1   SOL   0.4170
7393    OW   9.2600  35.9400   6.9700 O     1   SOL  -0.8340
7394   HW1   9.7600  35.8700   6.1600 H     1   SOL   0.4170
7395   HW2   8.7600  35.1300   7.0100 H     1   SOL   0.4170
7396    OW   6.3000  40.6400  18.6200 O     1   SOL  -0.8340
7397   HW1   6.3300  41.5400  18.2900 H     1   SOL   0.4170
7398   HW2   5.8800  40.7100  19.4800 H     1   SOL   0.4170
7399    OW  38.3500  32.0100  18.7500 O     1   SOL  -0.8340
7400   HW1  37.7900  32.7800  18.6600 H     1   SOL   0.4170
7401   HW2  38.9100  32.0200  17.9800 H     1   SOL   0.4170
7402    OW  25.0500  41.5100  12.7800 O     1   SOL  -0.8340
7403   HW1  25.5100  41.0500  12.0800 H     1   SOL   0.4170
7404   HW2  25.5600  41.3100  13.5700 H     1   SOL   0.4170
7405    OW  11.4600  36.1300   9.4200 O     1   SOL  -0.8340
7406   HW1  11.7700  35.2300   9.4600 H     1   SOL   0.4170
7407   HW2  11.5500  36.3800   8.5000 H     1   SOL   0.4170
7408    OW   2.4400  36.0400  12.8000 O     1   SOL  -0.8340
7409   HW1   3.3700  35.9100  12.6400 H     1   SOL   0.4170
7410   HW2   2.3700  36.9600  13.0700 H     1   SOL   0.4170
7411    OW  35.5500  41.5600  12.1200 O     1   SOL  -0.8340
7412   HW1  34.9900  42.1500  12.6200 H     1   SOL   0.4170
7413   HW2  35.4700  41.8700  11.2100 H     1   SOL   0.4170
7414    OW  19.7800  27.1600  14.4500 O     1   SOL  -0.8340
7415   HW1  20.4900  27.6400  14.8700 H     1   SOL   0.4170
7416   HW2  19.8100  27.4300  13.5300 H     1   SOL   0.4170
7417    OW   1.9500  36.8500   6.9700 O     1   SOL  -0.8340
7418   HW1   1.9100  36.6700   7.9100 H     1   SOL   0.4170
7419   HW2   1.9400  35.9900   6.5500 H     1   SOL   0.4170
7420    OW  10.3900  33.0900  17.4300 O     1   SOL  -0.8340
7421   HW1   9.4900  33.3600  17.5900 H     1   SOL   0.4170
7422   HW2  10.4700  33.0400  16.4800 H     1   SOL   0.4170
7423    OW  39.8800   5.2400  15.1400 O     1   SOL  -0.8340
7424   HW1  39.1300   4.8700  15.6100 H     1   SOL   0.4170
7425   HW2  40.5700   4.5900  15.2200 H     1   SOL   0.4170
7426    OW  40.8200   1.4200  12.9600 O     1   SOL  -0.8340
7427   HW1  40.1400   2.1000  12.9900 H     1   SOL   0.4170
7428   HW2  41.3200   1.6300  12.1700 H     1   SOL   0.4170
7429    OW   3.3300  42.0700   8.8400 O     1   SOL  -0.8340
7430   HW1   3.0100  42.3100   7.9700 H     1   SOL   0.4170
7431   HW2   3.7600  42.8600   9.1700 H     1   SOL   0.4170
7432    OW  12.3800  36.2600   6.5200 O     1   SOL  -0.8340
7433   HW1  12.9400  35.4900   6.4900 H     1   SOL   0.4170
7434   HW2  12.9900  36.9900   6.6800 H     1   SOL   0.4170
7435    OW  31.9900  31.8400  32.1800 O     1   SOL  -0.8340
7436   HW1  31.9800  32.3900  31.3900 H     1   SOL   0.4170
7437   HW2  32.2500  32.4400  32.8800 H     1   SOL   0.4170
7438    OW  41.7500  41.2200  18.3100 O     1   SOL  -0.8340
7439   HW1  41.1400  41.6100  18.9300 H     1   SOL   0.4170
7440   HW2  42.6200  41.4000  18.6900 H     1   SOL   0.4170
7441    OW  20.6100  21.8200  14.3200 O     1   SOL  -0.8340
7442   HW1  20.9700  20.9700  14.0800 H     1   SOL   0.4170
7443   HW2  21.3100  22.2500  14.8100 H     1   SOL   0.4170
7444    OW   8.8800  37.6100   9.2900 O     1   SOL  -0.8340
7445   HW1   9.1600  37.3300   8.4100 H     1   SOL   0.4170
7446   HW2   9.6100  37.3500   9.8600 H     1   SOL   0.4170
7447    OW   8.8600  39.2600  15.3500 O     1   SOL  -0.8340
7448   HW1   9.4100  39.4000  16.1300 H     1   SOL   0.4170
7449   HW2   8.0400  39.7100  15.5600 H     1   SOL   0.4170
7450    OW  18.8200  40.9600   6.5500 O     1   SOL  -0.8340
7451   HW1  19.1500  41.7900   6.2100 H     1   SOL   0.4170
7452   HW2  19.5900  40.5400   6.9300 H     1   SOL   0.4170
7453    OW  23.4200   6.8600  30.7900 O     1   SOL  -0.8340
7454   HW1  23.6200   7.7400  30.4600 H     1   SOL   0.4170
7455   HW2  24.2500   6.5400  31.1400 H     1   SOL   0.4170
7456    OW   6.3800  10.8800  26.4500 O     1   SOL  -0.8340
7457   HW1   7.0500  11.4700  26.1300 H     1   SOL   0.4170
7458   HW2   6.8500  10.0800  26.6700 H     1   SOL   0.4170
7459    OW   3.0400   4.5700  32.1900 O     1   SOL  -0.8340
7460   HW1   3.2700   4.7700  31.2900 H     1   SOL   0.4170
7461   HW2   3.2300   5.3800  32.6800 H     1   SOL   0.4170
7462    OW  14.3700  27.4600  17.4300 O     1   SOL  -0.8340
7463   HW1  14.7900  27.3600  16.5700 H     1   SOL   0.4170
7464   HW2  13.7900  28.2200  17.3200 H     1   SOL   0.4170
7465    OW  28.2700  34.6500  34.0600 O     1   SOL  -0.8340
7466   HW1  28.1700  33.7200  34.2800 H     1   SOL   0.4170
7467   HW2  27.4700  35.0600  34.3900 H     1   SOL   0.4170
7468    OW  42.2500  34.5900  30.0200 O     1   SOL  -0.8340
7469   HW1  41.3000  34.5200  30.0900 H     1   SOL   0.4170
7470   HW2  42.5400  33.7300  29.7300 H     1   SOL   0.4170
7471    OW  12.6300   3.8300  36.6800 O     1   SOL  -0.8340
7472   HW1  13.0200   4.7000  36.6300 H     1   SOL   0.4170
7473   HW2  11.9800   3.9000  37.3700 H     1   SOL   0.4170
7474    OW  21.7300  12.4100  43.4700 O     1   SOL  -0.8340
7475   HW1  22.4000  11.8800  43.0500 H     1   SOL   0.4170
7476   HW2  22.2100  13.0000  44.0400 H     1   SOL   0.4170
7477    OW  37.3800  36.6100  25.2200 O     1   SOL  -0.8340
7478   HW1  37.8200  36.0100  25.8200 H     1   SOL   0.4170
7479   HW2  36.8400  36.0500  24.6600 H     1   SOL   0.4170
7480    OW  19.3100   3.3500  23.1400 O     1   SOL  -0.8340
7481   HW1  20.2600   3.2900  23.1000 H     1   SOL   0.4170
7482   HW2  19.1400   3.8800  23.9200 H     1   SOL   0.4170
7483    OW  16.5000  37.2500  51.9900 O     1   SOL  -0.8340
7484   HW1  15.6900  37.4300  51.5100 H     1   SOL   0.4170
7485   HW2  16.9200  38.1000  52.0900 H     1   SOL   0.4170
7486    OW  37.9100  38.5200  17.1200 O     1   SOL  -0.8340
7487   HW1  37.8800  38.1200  17.9900 H     1   SOL   0.4170
7488   HW2  37.0000  38.5900  16.8500 H     1   SOL   0.4170
7489    OW  16.7600   7.5300  27.7600 O     1   SOL  -0.8340
7490   HW1  16.8900   8.4800  27.6800 H     1   SOL   0.4170
7491   HW2  16.0100   7.4500  28.3500 H     1   SOL   0.4170
7492    OW   7.1300   5.7700  36.9600 O     1   SOL  -0.8340
7493   HW1   6.5300   5.6700  37.7000 H     1   SOL   0.4170
7494   HW2   6.5700   6.0100  36.2300 H     1   SOL   0.4170
7495    OW  19.3000  30.3500  20.7000 O     1   SOL  -0.8340
7496   HW1  19.0100  29.6000  21.2200 H     1   SOL   0.4170
7497   HW2  19.9800  29.9900  20.1200 H     1   SOL   0.4170
7498    OW  23.9000  23.7900  21.9800 O     1   SOL  -0.8340
7499   HW1  23.4500  24.4000  22.5600 H     1   SOL   0.4170
7500   HW2  23.3000  23.6600  21.2500 H     1   SOL   0.4170
7501    OW   4.7600  30.3700  38.5200 O     1   SOL  -0.8340
7502   HW1   5.1800  30.7100  39.3100 H     1   SOL   0.4170
7503   HW2   4.2700  29.6100  38.8100 H     1   SOL   0.4170
7504    OW  15.3800  42.1400  19.1600 O     1   SOL  -0.8340
7505   HW1  14.6200  42.7100  19.0200 H     1   SOL   0.4170
7506   HW2  15.8400  42.5500  19.9000 H     1   SOL   0.4170
7507    OW  11.2500  36.3100  40.6100 O     1   SOL  -0.8340
7508   HW1  11.8400  37.0000  40.9100 H     1   SOL   0.4170
7509   HW2  10.4000  36.5400  40.9900 H     1   SOL   0.4170
7510    OW   0.9500  32.8000  16.1900 O     1   SOL  -0.8340
7511   HW1   0.2100  33.4100  16.2000 H     1   SOL   0.4170
7512   HW2   1.5700  33.2000  15.5800 H     1   SOL   0.4170
7513    OW  38.7700  39.0700  34.3600 O     1   SOL  -0.8340
7514   HW1  39.4800  39.4300  34.8900 H     1   SOL   0.4170
7515   HW2  38.7400  39.6400  33.5900 H     1   SOL   0.4170
7516    OW   8.2500  27.8200  18.2400 O     1   SOL  -0.8340
7517   HW1   8.5500  28.7300  18.3100 H     1   SOL   0.4170
7518   HW2   9.0600  27.3000  18.2400 H     1   SOL   0.4170
7519    OW  15.9400  37.4200  23.4300 O     1   SOL  -0.8340
7520   HW1  16.0500  37.6200  24.3600 H     1   SOL   0.4170
7521   HW2  15.7100  36.4900  23.4100 H     1   SOL   0.4170
7522    OW  33.5200  33.8700  12.8000 O     1   SOL  -0.8340
7523   HW1  34.0300  33.1500  12.4400 H     1   SOL   0.4170
7524   HW2  33.1000  33.5100  13.5800 H     1   SOL   0.4170
7525    OW  18.7500   1.9300  36.7700 O     1   SOL  -0.8340
7526   HW1  19.6000   1.5100  36.8900 H     1   SOL   0.4170
7527   HW2  18.6700   2.0600  35.8200 H     1   SOL   0.4170
7528    OW  18.8600   5.0700  25.4700 O     1   SOL  -0.8340
7529   HW1  18.9200   5.2700  26.4100 H     1   SOL   0.4170
7530   HW2  19.1700   5.8600  25.0400 H     1   SOL   0.4170
7531    OW   8.2500  31.5300  37.1800 O     1   SOL  -0.8340
7532   HW1   7.6900  30.7500  37.2400 H     1   SOL   0.4170
7533   HW2   9.0700  31.2000  36.8100 H     1   SOL   0.4170
7534    OW  30.3400  29.8900  26.1500 O     1   SOL  -0.8340
7535   HW1  30.8600  29.5500  26.8800 H     1   SOL   0.4170
7536   HW2  30.6400  29.3800  25.3900 H     1   SOL   0.4170
7537    OW  23.0900  40.8700  30.2700 O     1   SOL  -0.8340
7538   HW1  23.2700  40.3100  31.0300 H     1   SOL   0.4170
7539   HW2  23.8300  40.7200  29.6800 H     1   SOL   0.4170
7540    OW  42.0400  39.0300  16.4000 O     1   SOL  -0.8340
7541   HW1  41.6500  39.5100  15.6700 H     1   SOL   0.4170
7542   HW2  41.7400  39.5000  17.1800 H     1   SOL   0.4170
7543    OW  18.7700  17.6000  21.9000 O     1   SOL  -0.8340
7544   HW1  19.0100  18.3600  21.3700 H     1   SOL   0.4170
7545   HW2  18.9300  16.8500  21.3300 H     1   SOL   0.4170
7546    OW   2.8100  41.3700  34.9000 O     1   SOL  -0.8340
7547   HW1   2.4300  41.3000  35.7700 H     1   SOL   0.4170
7548   HW2   3.6700  40.9400  34.9700 H     1   SOL   0.4170
7549    OW  31.1800  42.3800  25.6800 O     1   SOL  -0.8340
7550   HW1  30.9400  42.3800  26.6100 H     1   SOL   0.4170
7551   HW2  30.3900  42.6900  25.2300 H     1   SOL   0.4170
7552    OW  25.2200   3.9600  20.5400 O     1   SOL  -0.8340
7553   HW1  25.2400   4.5600  21.2800 H     1   SOL   0.4170
7554   HW2  25.3900   4.5100  19.7800 H     1   SOL   0.4170
7555    OW  11.6200  35.7300  36.8500 O     1   SOL  -0.8340
7556   HW1  10.8100  35.2400  36.6900 H     1   SOL   0.4170
7557   HW2  12.3100  35.2100  36.4400 H     1   SOL   0.4170
7558    OW  23.8800   9.3400  29.6600 O     1   SOL  -0.8340
7559   HW1  23.6400   9.6900  28.7900 H     1   SOL   0.4170
7560   HW2  24.7700   9.6700  29.8100 H     1   SOL   0.4170
7561    OW  13.4800  37.9000  44.7500 O     1   SOL  -0.8340
7562   HW1  13.4100  37.3700  45.5500 H     1   SOL   0.4170
7563   HW2  13.1900  38.7700  45.0100 H     1   SOL   0.4170
7564    OW   6.1800  32.0700  32.9500 O     1   SOL  -0.8340
7565   HW1   6.2100  32.2800  32.0100 H     1   SOL   0.4170
7566   HW2   5.2500  31.9800  33.1400 H     1   SOL   0.4170
7567    OW  20.8000  40.6000  26.0600 O     1   SOL  -0.8340
7568   HW1  20.4900  40.1500  26.8500 H     1   SOL   0.4170
7569   HW2  20.0200  40.6900  25.5100 H     1   SOL   0.4170
7570    OW  18.5400   7.6300  16.7700 O     1   SOL  -0.8340
7571   HW1  17.6300   7.6000  16.4900 H     1   SOL   0.4170
7572   HW2  18.7000   6.7700  17.1500 H     1   SOL   0.4170
7573    OW  14.4800  26.2200  25.4200 O     1   SOL  -0.8340
7574   HW1  14.2600  26.0000  24.5200 H     1   SOL   0.4170
7575   HW2  13.8300  25.7600  25.9500 H     1   SOL   0.4170
7576    OW  42.0000   9.3200  39.1600 O     1   SOL  -0.8340
7577   HW1  41.4000   9.2900  39.9100 H     1   SOL   0.4170
7578   HW2  42.8500   9.0600  39.5200 H     1   SOL   0.4170
7579    OW  17.3200  35.3000  26.8100 O     1   SOL  -0.8340
7580   HW1  16.7500  34.5500  26.6800 H     1   SOL   0.4170
7581   HW2  17.9500  35.0100  27.4800 H     1   SOL   0.4170
7582    OW   7.5300  36.5500  21.4400 O     1   SOL  -0.8340
7583   HW1   7.4100  35.7300  20.9600 H     1   SOL   0.4170
7584   HW2   7.2900  37.2300  20.8100 H     1   SOL   0.4170
7585    OW  36.3900  31.7100  29.4900 O     1   SOL  -0.8340
7586   HW1  35.5400  31.2600  29.4400 H     1   SOL   0.4170
7587   HW2  36.8500  31.4400  28.7000 H     1   SOL   0.4170
7588    OW  39.0700  33.0000  29.8700 O     1   SOL  -0.8340
7589   HW1  39.3600  32.1200  29.6200 H     1   SOL   0.4170
7590   HW2  38.1200  32.9300  29.9400 H     1   SOL   0.4170
7591    OW  18.3500   0.6800  28.7600 O     1   SOL  -0.8340
7592   HW1  18.7800   0.8100  29.6000 H     1   SOL   0.4170
7593   HW2  17.8500   1.4900  28.6100 H     1   SOL   0.4170
7594    OW  16.0900  31.1400  11.3600 O     1   SOL  -0.8340
7595   HW1  16.1200  32.0500  11.0800 H     1   SOL   0.4170
7596   HW2  16.9400  30.7800  11.1200 H     1   SOL   0.4170
7597    OW  17.1800  39.9500  31.5600 O     1   SOL  -0.8340
7598   HW1  17.3800  40.3000  30.6900 H     1   SOL   0.4170
7599   HW2  16.2800  40.2400  31.7300 H     1   SOL   0.4170
7600    OW   7.2300  39.7400  21.5900 O     1   SOL  -0.8340
7601   HW1   6.7400  40.5400  21.8100 H     1   SOL   0.4170
7602   HW2   7.3200  39.2800  22.4300 H     1   SOL   0.4170
7603    OW  21.3600   1.2600  37.5100 O     1   SOL  -0.8340
7604   HW1  22.2600   0.9400  37.5700 H     1   SOL   0.4170
7605   HW2  21.4500   2.1500  37.1700 H     1   SOL   0.4170
7606    OW   2.0000  25.0900  38.6600 O     1   SOL  -0.8340
7607   HW1   2.2600  25.8700  38.1500 H     1   SOL   0.4170
7608   HW2   1.0500  25.1000  38.6300 H     1   SOL   0.4170
7609    OW  15.1800  41.0900  45.6300 O     1   SOL  -0.8340
7610   HW1  15.5900  40.8900  44.7900 H     1   SOL   0.4170
7611   HW2  15.7300  41.7700  46.0100 H     1   SOL   0.4170
7612    OW   7.3400  24.2600  43.4900 O     1   SOL  -0.8340
7613   HW1   7.7800  25.0200  43.8900 H     1   SOL   0.4170
7614   HW2   8.0500  23.7400  43.1200 H     1   SOL   0.4170
7615    OW   7.6900  13.0500  48.8600 O     1   SOL  -0.8340
7616   HW1   6.9100  13.6100  48.8300 H     1   SOL   0.4170
7617   HW2   7.4400  12.3200  49.4200 H     1   SOL   0.4170
7618    OW  23.0700  33.0800  56.5300 O     1   SOL  -0.8340
7619   HW1  22.7400  33.4600  57.3500 H     1   SOL   0.4170
7620   HW2  22.5400  33.4900  55.8500 H     1   SOL   0.4170
7621    OW   3.9700  35.0800  44.1200 O     1   SOL  -0.8340
7622   HW1   4.6300  34.5900  44.6200 H     1   SOL   0.4170
7623   HW2   3.1900  35.0600  44.6700 H     1   SOL   0.4170
7624    OW   8.1000  38.4800  74.8500 O     1   SOL  -0.8340
7625   HW1   8.3700  39.1700  74.2500 H     1   SOL   0.4170
7626   HW2   7.4700  37.9600  74.3600 H     1   SOL   0.4170
7627    OW  18.6900   3.6500  48.7500 O     1   SOL  -0.8340
7628   HW1  18.0000   3.3800  48.1500 H     1   SOL   0.4170
7629   HW2  18.4000   4.5100  49.0700 H     1   SOL   0.4170
7630    OW  40.3100  21.9600  42.2800 O     1   SOL  -0.8340
7631   HW1  39.9900  21.0900  42.0500 H     1   SOL   0.4170
7632   HW2  41.2400  21.9400  42.0600 H     1   SOL   0.4170
7633    OW   2.2500  38.6900  45.7700 O     1   SOL  -0.8340
7634   HW1   1.9400  37.8000  45.9600 H     1   SOL   0.4170
7635   HW2   1.4800  39.2400  45.9100 H     1   SOL   0.4170
7636    OW   7.9600  12.8700  41.5000 O     1   SOL  -0.8340
7637   HW1   8.0500  11.9200  41.6100 H     1   SOL   0.4170
7638   HW2   7.7000  13.1900  42.3600 H     1   SOL   0.4170
7639    OW   8.4300   9.1600  56.4600 O     1   SOL  -0.8340
7640   HW1   7.5900   9.3000  56.8900 H     1   SOL   0.4170
7641   HW2   9.0000   9.8400  56.8400 H     1   SOL   0.4170
7642    OW  11.9500  35.9600  30.4000 O     1   SOL  -0.8340
7643   HW1  11.3000  35.7600  31.0700 H     1   SOL   0.4170
7644   HW2  11.4600  36.4500  29.7300 H     1   SOL   0.4170
7645    OW  12.4400  36.7300  54.8100 O     1   SOL  -0.8340
7646   HW1  11.9100  37.2500  54.2100 H     1   SOL   0.4170
7647   HW2  11.8800  35.9900  55.0400 H     1   SOL   0.4170
7648    OW   8.2300  39.3600  49.3600 O     1   SOL  -0.8340
7649   HW1   7.9700  38.4900  49.0600 H     1   SOL   0.4170
7650   HW2   7.6700  39.5200  50.1300 H     1   SOL   0.4170
7651    OW  26.6500  27.5600  66.8800 O     1   SOL  -0.8340
7652   HW1  26.1900  28.2800  67.3100 H     1   SOL   0.4170
7653   HW2  26.3800  26.7800  67.3600 H     1   SOL   0.4170
7654    OW  15.0900   5.5700  65.1700 O     1   SOL  -0.8340
7655   HW1  15.9400   5.4700  65.6100 H     1   SOL   0.4170
7656   HW2  14.5100   4.9500  65.6100 H     1   SOL   0.4170
7657    OW   8.8700  37.5000  37.1800 O     1   SOL  -0.8340
7658   HW1   9.2800  37.2200  36.3500 H     1   SOL   0.4170
7659   HW2   8.8700  36.7100  37.7200 H     1   SOL   0.4170
7660    OW   3.8800  29.9600  34.3800 O     1   SOL  -0.8340
7661   HW1   2.9900  30.2800  34.2300 H     1   SOL   0.4170
7662   HW2   4.1500  30.3800  35.2000 H     1   SOL   0.4170
7663    OW  10.2800  42.8000  48.7800 O     1   SOL  -0.8340
7664   HW1  10.3000  41.9500  48.3500 H     1   SOL   0.4170
7665   HW2  10.9500  42.7400  49.4600 H     1   SOL   0.4170
7666    OW  42.4100  41.9200  60.5700 O     1   SOL  -0.8340
7667   HW1  42.5700  40.9900  60.7000 H     1   SOL   0.4170
7668   HW2  43.2600  42.2700  60.2800 H     1   SOL   0.4170
7669    OW  36.3400  34.7700  30.2000 O     1   SOL  -0.8340
7670   HW1  35.8600  33.9500  30.3000 H     1   SOL   0.4170
7671   HW2  36.3500  35.1600  31.0800 H     1   SOL   0.4170
7672    OW   0.3600   6.3700  32.5600 O     1   SOL  -0.8340
7673   HW1   0.3700   5.4300  32.7400 H     1   SOL   0.4170
7674   HW2   0.9100   6.4700  31.7800 H     1   SOL   0.4170
7675    OW   6.3300  35.7400  35.6700 O     1   SOL  -0.8340
7676   HW1   6.6700  35.7000  36.5600 H     1   SOL   0.4170
7677   HW2   6.6100  36.5900  35.3400 H     1   SOL   0.4170
7678    OW  11.3800  21.2000  61.2400 O     1   SOL  -0.8340
7679   HW1  11.7000  20.3100  61.3200 H     1   SOL   0.4170
7680   HW2  10.9200  21.3700  62.0600 H     1   SOL   0.4170
7681    OW   3.1100  37.0500  28.8000 O     1   SOL  -0.8340
7682   HW1   3.6500  37.5800  29.3800 H     1   SOL   0.4170
7683   HW2   2.2400  37.0400  29.2200 H     1   SOL   0.4170
7684    OW   6.0300  24.1900  53.8000 O     1   SOL  -0.8340
7685   HW1   6.7700  24.6400  53.4000 H     1   SOL   0.4170
7686   HW2   5.4500  24.8900  54.1000 H     1   SOL   0.4170
7687    OW  12.3700  16.0200  41.0500 O     1   SOL  -0.8340
7688   HW1  11.6100  15.6900  41.5300 H     1   SOL   0.4170
7689   HW2  12.0300  16.7300  40.5000 H     1   SOL   0.4170
7690    OW   5.9800  27.4000  39.1900 O     1   SOL  -0.8340
7691   HW1   5.0700  27.2700  39.4300 H     1   SOL   0.4170
7692   HW2   6.4100  26.5800  39.4100 H     1   SOL   0.4170
7693    OW   9.9500   0.3000  39.6100 O     1   SOL  -0.8340
7694   HW1   9.8200  -0.4000  38.9800 H     1   SOL   0.4170
7695   HW2   9.4000   1.0200  39.2800 H     1   SOL   0.4170
7696    OW   2.9900   8.5100  46.9800 O     1   SOL  -0.8340
7697   HW1   3.8900   8.7700  47.1800 H     1   SOL   0.4170
7698   HW2   2.4500   9.0900  47.5200 H     1   SOL   0.4170
7699    OW  25.6000  10.6300  58.8500 O     1   SOL  -0.8340
7700   HW1  25.8300   9.7000  58.8300 H     1   SOL   0.4170
7701   HW2  25.4100  10.8100  59.7700 H     1   SOL   0.4170
7702    OW   7.6200  35.0600  50.1400 O     1   SOL  -0.8340
7703   HW1   7.1800  35.8800  49.9300 H     1   SOL   0.4170
7704   HW2   8.4500  35.3300  50.5300 H     1   SOL   0.4170
7705    OW  19.6500  40.4500  45.4300 O     1   SOL  -0.8340
7706   HW1  20.2600  40.4800  46.1700 H     1   SOL   0.4170
7707   HW2  19.2900  39.5700  45.4500 H     1   SOL   0.4170
7708    OW  18.6700  22.8000  56.9100 O     1   SOL  -0.8340
7709   HW1  18.9500  21.9100  57.1300 H     1   SOL   0.4170
7710   HW2  19.2200  23.0500  56.1700 H     1   SOL   0.4170
7711    OW  26.3300  40.5900  50.4400 O     1   SOL  -0.8340
7712   HW1  26.8800  39.9600  50.9300 H     1   SOL   0.4170
7713   HW2  25.5300  40.1000  50.2400 H     1   SOL   0.4170
7714    OW  34.3700  40.2500  44.6900 O     1   SOL  -0.8340
7715   HW1  33.6800  40.9000  44.5500 H     1   SOL   0.4170
7716   HW2  35.1400  40.6400  44.2800 H     1   SOL   0.4170
7717    OW   2.0400  33.5200  35.8700 O     1   SOL  -0.8340
7718   HW1   2.4800  33.1000  36.6100 H     1   SOL   0.4170
7719   HW2   2.6700  34.1800  35.5600 H     1   SOL   0.4170
7720    OW  13.0200  36.4900  51.7100 O     1   SOL  -0.8340
7721   HW1  13.1900  35.6300  51.3400 H     1   SOL   0.4170
7722   HW2  12.7800  36.3200  52.6200 H     1   SOL   0.4170
7723    OW  10.7200  15.9500  47.9900 O     1   SOL  -0.8340
7724   HW1  10.6200  15.8100  48.9300 H     1   SOL   0.4170
7725   HW2  11.6100  15.6800  47.8000 H     1   SOL   0.4170
7726    OW  12.1100  29.3200  41.1400 O     1   SOL  -0.8340
7727   HW1  12.7200  28.7000  40.7500 H     1   SOL   0.4170
7728   HW2  11.3400  28.8000  41.3600 H     1   SOL   0.4170
7729    OW  17.3200   6.6000  43.5500 O     1   SOL  -0.8340
7730   HW1  17.6000   6.4100  44.4400 H     1   SOL   0.4170
7731   HW2  16.5100   7.0900  43.6400 H     1   SOL   0.4170
7732    OW  26.4200  22.7600  50.1300 O     1   SOL  -0.8340
7733   HW1  26.1400  21.8500  50.0200 H     1   SOL   0.4170
7734   HW2  27.3600  22.7500  49.9600 H     1   SOL   0.4170
7735    OW   8.7700  40.5200  42.3700 O     1   SOL  -0.8340
7736   HW1   9.1900  41.3900  42.3200 H     1   SOL   0.4170
7737   HW2   8.4700  40.4600  43.2800 H     1   SOL   0.4170
7738    OW  14.1600   6.1000  59.4600 O     1   SOL  -0.8340
7739   HW1  13.9700   5.1700  59.5700 H     1   SOL   0.4170
7740   HW2  14.7100   6.3300  60.2100 H     1   SOL   0.4170
7741    OW  37.1700   9.1200  38.9200 O     1   SOL  -0.8340
7742   HW1  36.3200   9.4400  39.2100 H     1   SOL   0.4170
7743   HW2  37.0700   9.0000  37.9700 H     1   SOL   0.4170
7744    OW  10.3300  27.8000  45.2100 O     1   SOL  -0.8340
7745   HW1  10.1700  26.9200  45.5500 H     1   SOL   0.4170
7746   HW2  10.3600  27.7000  44.2600 H     1   SOL   0.4170
7747    OW   5.6300  18.1600  55.7500 O     1   SOL  -0.8340
7748   HW1   4.7100  18.4100  55.8100 H     1   SOL   0.4170
7749   HW2   5.9800  18.7100  55.0400 H     1   SOL   0.4170
7750    OW  11.5600  39.3600  73.8200 O     1   SOL  -0.8340
7751   HW1  11.6900  38.4100  73.7600 H     1   SOL   0.4170
7752   HW2  11.2300  39.6100  72.9600 H     1   SOL   0.4170
7753    OW  19.5900   5.5300  42.5000 O     1   SOL  -0.8340
7754   HW1  18.7900   5.9100  42.8500 H     1   SOL   0.4170
7755   HW2  19.4400   4.5900  42.5300 H     1   SOL   0.4170
7756    OW  32.1100   5.0500  58.0800 O     1   SOL  -0.8340
7757   HW1  32.3700   4.1300  58.1900 H     1   SOL   0.4170
7758   HW2  32.8300   5.5500  58.4600 H     1   SOL   0.4170
7759    OW  40.1700  25.8700  71.1100 O     1   SOL  -0.8340
7760   HW1  39.9300  25.1400  71.6900 H     1   SOL   0.4170
7761   HW2  41.1200  25.8800  71.1100 H     1   SOL   0.4170
7762    OW  25.9700  17.3900  69.9700 O     1   SOL  -0.8340
7763   HW1  26.0900  16.6200  69.4100 H     1   SOL   0.4170
7764   HW2  26.0700  18.1300  69.3800 H     1   SOL   0.4170
7765    OW   1.1900  41.7700  53.5000 O     1   SOL  -0.8340
7766   HW1   1.3300  41.1300  52.8000 H     1   SOL   0.4170
7767   HW2   0.2300  41.8300  53.5700 H     1   SOL   0.4170
7768    OW  17.8800   4.4800  58.4400 O     1   SOL  -0.8340
7769   HW1  17.7500   4.7500  57.5300 H     1   SOL   0.4170
7770   HW2  17.2800   3.7500  58.5600 H     1   SOL   0.4170
7771    OW  17.7800   9.4700  61.9600 O     1   SOL  -0.8340
7772   HW1  17.1800   9.0100  62.5500 H     1   SOL   0.4170
7773   HW2  18.6300   9.0900  62.1500 H     1   SOL   0.4170
7774    OW  13.5100  41.7800  76.8800 O     1   SOL  -0.8340
7775   HW1  13.9400  41.4600  77.6800 H     1   SOL   0.4170
7776   HW2  13.7400  42.7100  76.8400 H     1   SOL   0.4170
7777    OW  18.4500  36.5400  63.0500 O     1   SOL  -0.8340
7778   HW1  18.9600  35.7700  62.8000 H     1   SOL   0.4170
7779   HW2  18.9900  36.9900  63.7000 H     1   SOL   0.4170
7780    OW  18.4100  41.2700  66.7800 O     1   SOL  -0.8340
7781   HW1  19.1700  41.5800  67.2800 H     1   SOL   0.4170
7782   HW2  17.7100  41.8800  67.0000 H     1   SOL   0.4170
7783    OW   7.0900   4.1200  74.7700 O     1   SOL  -0.8340
7784   HW1   7.9300   4.0800  74.3200 H     1   SOL   0.4170
7785   HW2   6.5800   3.3900  74.4100 H     1   SOL   0.4170
7786    OW  14.6200  20.6000  67.2000 O     1   SOL  -0.8340
7787   HW1  14.7600  20.8600  68.1100 H     1   SOL   0.4170
7788   HW2  15.4900  20.3700  66.8700 H     1   SOL   0.4170
7789    OW  16.2000  40.0800  76.8000 O     1   SOL  -0.8340
7790   HW1  17.0800  40.0300  77.1700 H     1   SOL   0.4170
7791   HW2  16.0000  41.0200  76.7800 H     1   SOL   0.4170
7792    OW   9.0900   6.9400  62.2700 O     1   SOL  -0.8340
7793   HW1   8.6400   6.3700  61.6400 H     1   SOL   0.4170
7794   HW2   8.4400   7.6000  62.5100 H     1   SOL   0.4170
7795    OW   5.1800  37.4600  69.5200 O     1   SOL  -0.8340
7796   HW1   4.7400  37.1000  70.2900 H     1   SOL   0.4170
7797   HW2   6.1100  37.4300  69.7400 H     1   SOL   0.4170
7798    OW   4.7200  40.2700  61.0500 O     1   SOL  -0.8340
7799   HW1   4.5400  40.5400  61.9500 H     1   SOL   0.4170
7800   HW2   5.5100  39.7300  61.1200 H     1   SOL   0.4170
7801    OW  39.0300   8.8100  61.4700 O     1   SOL  -0.8340
7802   HW1  38.7900   9.3400  62.2300 H     1   SOL   0.4170
7803   HW2  38.8100   7.9100  61.7200 H     1   SOL   0.4170
7804    OW  11.9200   8.5400  60.0300 O     1   SOL  -0.8340
7805   HW1  11.9800   9.4800  59.8400 H     1   SOL   0.4170
7806   HW2  12.8100   8.2100  59.9000 H     1   SOL   0.4170
7807    OW   6.4400   5.8800  70.5600 O     1   SOL  -0.8340
7808   HW1   6.0100   5.0400  70.7200 H     1   SOL   0.4170
7809   HW2   7.2600   5.6400  70.1200 H     1   SOL   0.4170
7810    OW   8.9500   8.9000  60.1800 O     1   SOL  -0.8340
7811   HW1   8.4700   8.1400  59.8700 H     1   SOL   0.4170
7812   HW2   9.6700   8.5400  60.7000 H     1   SOL   0.4170
7813    OW   4.8200  33.3800  64.9200 O     1   SOL  -0.8340
7814   HW1   5.6600  33.1400  65.3100 H     1   SOL   0.4170
7815   HW2   4.3700  32.5500  64.7900 H     1   SOL   0.4170
7816    OW  23.4300  37.9700  69.9500 O     1   SOL  -0.8340
7817   HW1  24.1300  37.3400  70.1500 H     1   SOL   0.4170
7818   HW2  23.3100  38.4500  70.7600 H     1   SOL   0.4170
7819    OW   0.8700  40.0700  71.7600 O     1   SOL  -0.8340
7820   HW1  -0.0900  40.1100  71.6900 H     1   SOL   0.4170
7821   HW2   1.0500  40.2200  72.6800 H     1   SOL   0.4170
7822    OW  10.2300   1.2800  68.8000 O     1   SOL  -0.8340
7823   HW1  10.8000   1.5000  68.0700 H     1   SOL   0.4170
7824   HW2  10.4200   1.9300  69.4700 H     1   SOL   0.4170
7825    OW   7.9000  30.8000  72.7600 O     1   SOL  -0.8340
7826   HW1   7.7700  31.1400  73.6500 H     1   SOL   0.4170
7827   HW2   8.6800  30.2500  72.8300 H     1   SOL   0.4170
7828    OW   1.3800  41.1100  68.6800 O     1   SOL  -0.8340
7829   HW1   1.3500  41.1100  69.6300 H     1   SOL   0.4170
7830   HW2   1.3200  42.0300  68.4300 H     1   SOL   0.4170
7831    OW  11.6000   7.0500  72.1900 O     1   SOL  -0.8340
7832   HW1  12.5000   7.1700  71.9000 H     1   SOL   0.4170
7833   HW2  11.4600   7.7300  72.8500 H     1   SOL   0.4170
7834    OW  12.3600   3.4500  77.1500 O     1   SOL  -0.8340
7835   HW1  11.6000   2.8800  77.2800 H     1   SOL   0.4170
7836   HW2  11.9800   4.3300  77.0500 H     1   SOL   0.4170
7837    OW   4.1300  17.6300  59.9900 O     1   SOL  -0.8340
7838   HW1   3.9000  18.5400  59.8100 H     1   SOL   0.4170
7839   HW2   3.3600  17.2700  60.4400 H     1   SOL   0.4170
7840    OW  26.6300  36.4800  54.9100 O     1   SOL  -0.8340
7841   HW1  26.0300  36.3300  55.6400 H     1   SOL   0.4170
7842   HW2  27.5000  36.2800  55.2700 H     1   SOL   0.4170
7843    OW   9.6100  38.5100  67.0100 O     1   SOL  -0.8340
7844   HW1   9.2800  38.3300  66.1300 H     1   SOL   0.4170
7845   HW2   9.3200  37.7600  67.5300 H     1   SOL   0.4170
7846    OW  41.9800  42.7400  70.7900 O     1   SOL  -0.8340
7847   HW1  41.2100  42.9400  71.3400 H     1   SOL   0.4170
7848   HW2  41.6800  42.0500  70.2100 H     1   SOL   0.4170
7849    OW   5.2000   3.4600  65.0200 O     1   SOL  -0.8340
7850   HW1   4.6000   3.2400  64.3100 H     1   SOL   0.4170
7851   HW2   5.5000   2.6200  65.3600 H     1   SOL   0.4170
7852    OW   7.4400  41.7100  76.9900 O     1   SOL  -0.8340
7853   HW1   7.6600  41.9700  76.1000 H     1   SOL   0.4170
7854   HW2   7.3800  42.5400  77.4700 H     1   SOL   0.4170
7855    OW  41.8200  43.1500  43.4600 O     1   SOL  -0.8340
7856   HW1  42.6800  42.7600  43.3100 H     1   SOL   0.4170
7857   HW2  42.0100  43.9800  43.9000 H     1   SOL   0.4170
7858    OW  17.6900   5.8000  55.3800 O     1   SOL  -0.8340
7859   HW1  17.8200   5.2200  54.6400 H     1   SOL   0.4170
7860   HW2  18.5400   6.2100  55.5300 H     1   SOL   0.4170
7861    OW  20.3800  10.4300  65.3600 O     1   SOL  -0.8340
7862   HW1  20.0400  10.2000  64.5000 H     1   SOL   0.4170
7863   HW2  19.6700  10.2200  65.9700 H     1   SOL   0.4170
7864    OW   1.2900  36.6000  62.1700 O     1   SOL  -0.8340
7865   HW1   0.6100  36.0100  61.8600 H     1   SOL   0.4170
7866   HW2   2.0700  36.3700  61.6600 H     1   SOL   0.4170
7867    OW  16.2800  37.6300  64.1200 O     1   SOL  -0.8340
7868   HW1  17.0700  37.3700  63.6500 H     1   SOL   0.4170
7869   HW2  16.5900  38.1600  64.8500 H     1   SOL   0.4170
7870    OW   8.9200  42.3300  74.5400 O     1   SOL  -0.8340
7871   HW1   9.1300  43.2100  74.2200 H     1   SOL   0.4170
7872   HW2   9.6700  42.0800  75.0700 H     1   SOL   0.4170
7873    OW   7.4500   9.0400  62.6800 O     1   SOL  -0.8340
7874   HW1   7.2600   9.1700  61.7500 H     1   SOL   0.4170
7875   HW2   6.7900   9.5800  63.1300 H     1   SOL   0.4170
7876    OW  33.1700  39.1500  71.1000 O     1   SOL  -0.8340
7877   HW1  32.9400  39.0100  70.1800 H     1   SOL   0.4170
7878   HW2  33.6500  38.3600  71.3500 H     1   SOL   0.4170
7879    OW  18.6300   1.0500  73.4500 O     1   SOL  -0.8340
7880   HW1  18.4100   0.1400  73.6300 H     1   SOL   0.4170
7881   HW2  17.8800   1.3800  72.9500 H     1   SOL   0.4170
7882    OW  17.7800  37.2800  75.2300 O     1   SOL  -0.8340
7883   HW1  17.7300  38.0800  75.7500 H     1   SOL   0.4170
7884   HW2  17.3200  36.6200  75.7500 H     1   SOL   0.4170
7885    OW  25.5500  17.6900  66.6000 O     1   SOL  -0.8340
7886   HW1  25.4800  17.6300  65.6400 H     1   SOL   0.4170
7887   HW2  24.6900  17.9900  66.8800 H     1   SOL   0.4170
7888    OW   6.7700  36.6700  64.6600 O     1   SOL  -0.8340
7889   HW1   6.3300  36.6000  63.8100 H     1   SOL   0.4170
7890   HW2   6.1000  36.4600  65.3000 H     1   SOL   0.4170
7891    OW  21.4400   4.2700  69.6600 O     1   SOL  -0.8340
7892   HW1  21.7100   5.1000  69.2700 H     1   SOL   0.4170
7893   HW2  21.2200   4.5000  70.5700 H     1   SOL   0.4170
7894    OW  22.3400   7.1000  57.1400 O     1   SOL  -0.8340
7895   HW1  23.2400   6.8900  57.4000 H     1   SOL   0.4170
7896   HW2  21.8000   6.4500  57.5900 H     1   SOL   0.4170
7897    OW  21.2100  32.6200  63.5100 O     1   SOL  -0.8340
7898   HW1  20.7700  33.3300  63.0400 H     1   SOL   0.4170
7899   HW2  21.5100  33.0300  64.3200 H     1   SOL   0.4170
7900    OW  18.4100   7.0700  63.4100 O     1   SOL  -0.8340
7901   HW1  17.7600   6.9100  62.7300 H     1   SOL   0.4170
7902   HW2  18.1000   6.5700  64.1700 H     1   SOL   0.4170
7903    OW   1.1000  41.9700  44.1700 O     1   SOL  -0.8340
7904   HW1   0.7700  41.9100  45.0600 H     1   SOL   0.4170
7905   HW2   1.9800  41.6000  44.2000 H     1   SOL   0.4170
7906    OW  11.5300   0.8200  60.5700 O     1   SOL  -0.8340
7907   HW1  11.5700   1.3800  61.3400 H     1   SOL   0.4170
7908   HW2  11.7000  -0.0600  60.9000 H     1   SOL   0.4170
7909    OW  23.6700  40.0400  56.8700 O     1   SOL  -0.8340
7910   HW1  22.9500  40.6500  56.7600 H     1   SOL   0.4170
7911   HW2  23.2600  39.2300  57.1800 H     1   SOL   0.4170
7912    OW  13.9800   0.7000  74.0100 O     1   SOL  -0.8340
7913   HW1  13.9900  -0.2600  73.9600 H     1   SOL   0.4170
7914   HW2  13.8600   0.8800  74.9400 H     1   SOL   0.4170
7915    OW  18.0000  41.6400  74.1500 O     1   SOL  -0.8340
7916   HW1  18.5300  41.4300  73.3800 H     1   SOL   0.4170
7917   HW2  17.2500  41.0600  74.0900 H     1   SOL   0.4170
7918    OW  16.4200  42.7900  76.8900 O     1   SOL  -0.8340
7919   HW1  16.5200  43.6600  76.5000 H     1   SOL   0.4170
7920   HW2  17.1100  42.7300  77.5400 H     1   SOL   0.4170
7921    OW   5.7900  39.2900  76.7800 O     1   SOL  -0.8340
7922   HW1   6.3200  39.9900  77.1600 H     1   SOL   0.4170
7923   HW2   5.7100  39.5200  75.8500 H     1   SOL   0.4170
7924    OW   2.4300  28.3100  61.4800 O     1   SOL  -0.8340
7925   HW1   1.7800  28.3700  62.1900 H     1   SOL   0.4170
7926   HW2   3.2100  27.9600  61.9100 H     1   SOL   0.4170
7927    OW  21.9900  41.4400  76.9300 O     1   SOL  -0.8340
7928   HW1  22.6300  42.1400  77.0800 H     1   SOL   0.4170
7929   HW2  21.2200  41.8800  76.6000 H     1   SOL   0.4170
7930    OW  13.6100  41.2300  74.4000 O     1   SOL  -0.8340
7931   HW1  13.6500  41.3200  75.3500 H     1   SOL   0.4170
7932   HW2  12.9800  40.5300  74.2400 H     1   SOL   0.4170
7933    OW  42.2000   0.3800  74.9700 O     1   SOL  -0.8340
7934   HW1  42.3300   0.6200  74.0500 H     1   SOL   0.4170
7935   HW2  42.3000   1.2000  75.4500 H     1   SOL   0.4170
7936    OW  41.8600  11.9100  56.9700 O     1   SOL  -0.8340
7937   HW1  41.3600  12.1900  56.2000 H     1   SOL   0.4170
7938   HW2  42.7800  12.0000  56.7100 H     1   SOL   0.4170
7939    OW  28.5900  37.1800  69.3300 O     1   SOL  -0.8340
7940   HW1  28.2300  37.9900  68.9600 H     1   SOL   0.4170
7941   HW2  29.2700  36.9200  68.7100 H     1   SOL   0.4170
7942    OW  12.7900  42.7500   6.9300 O     1   SOL  -0.8340
7943   HW1  12.0000  43.3000   7.0200 H     1   SOL   0.4170
7944   HW2  12.4800  41.8600   7.1200 H     1   SOL   0.4170
7945    OW  12.3600   3.1600   7.1000 O     1   SOL  -0.8340
7946   HW1  12.5800   4.0900   7.0300 H     1   SOL   0.4170
7947   HW2  13.1600   2.7000   6.8400 H     1   SOL   0.4170
7948    OW  16.5500  17.7400  14.8700 O     1   SOL  -0.8340
7949   HW1  15.7100  17.2700  14.8900 H     1   SOL   0.4170
7950   HW2  16.3100  18.6400  14.6400 H     1   SOL   0.4170
7951    OW  37.3100  10.8100  10.2000 O     1   SOL  -0.8340
7952   HW1  37.1100  11.7400  10.0800 H     1   SOL   0.4170
7953   HW2  36.8400  10.5700  11.0000 H     1   SOL   0.4170
7954    OW  23.1700   2.7300  14.4800 O     1   SOL  -0.8340
7955   HW1  24.0300   3.0400  14.7700 H     1   SOL   0.4170
7956   HW2  23.3600   2.1000  13.7900 H     1   SOL   0.4170
7957    OW  23.8900  11.1400  27.4300 O     1   SOL  -0.8340
7958   HW1  23.3900  11.9400  27.5800 H     1   SOL   0.4170
7959   HW2  24.6100  11.4200  26.8600 H     1   SOL   0.4170
7960    OW  21.9200  12.8200   6.7700 O     1   SOL  -0.8340
7961   HW1  21.5100  13.5300   7.2500 H     1   SOL   0.4170
7962   HW2  21.2100  12.4200   6.2700 H     1   SOL   0.4170
7963    OW  13.6900  16.3000  11.6900 O     1   SOL  -0.8340
7964   HW1  12.9400  15.9200  12.1500 H     1   SOL   0.4170
7965   HW2  13.8500  17.1300  12.1500 H     1   SOL   0.4170
7966    OW  36.5200   7.7000  25.7700 O     1   SOL  -0.8340
7967   HW1  37.2300   8.2400  25.4200 H     1   SOL   0.4170
7968   HW2  35.9600   7.5200  25.0200 H     1   SOL   0.4170
7969    OW   3.4700  14.5200  24.8000 O     1   SOL  -0.8340
7970   HW1   3.5100  13.6100  25.0900 H     1   SOL   0.4170
7971   HW2   2.7200  14.5600  24.2100 H     1   SOL   0.4170
7972    OW  25.3800  16.3000   6.8200 O     1   SOL  -0.8340
7973   HW1  24.7200  16.1700   7.5000 H     1   SOL   0.4170
7974   HW2  25.5300  15.4300   6.4500 H     1   SOL   0.4170
7975    OW  15.4500  11.3200   6.8600 O     1   SOL  -0.8340
7976   HW1  14.5100  11.3700   6.7100 H     1   SOL   0.4170
7977   HW2  15.7000  12.2000   7.1500 H     1   SOL   0.4170
7978    OW  20.0000   7.7100   6.9000 O     1   SOL  -0.8340
7979   HW1  19.7700   6.8100   6.7100 H     1   SOL   0.4170
7980   HW2  19.2000   8.2100   6.7500 H     1   SOL   0.4170
7981    OW  22.3500  13.5700  11.0500 O     1   SOL  -0.8340
7982   HW1  21.8600  13.7300  10.2500 H     1   SOL   0.4170
7983   HW2  23.2200  13.3000  10.7500 H     1   SOL   0.4170
7984    OW  18.4100   2.3200   6.5400 O     1   SOL  -0.8340
7985   HW1  17.8400   2.6200   7.2500 H     1   SOL   0.4170
7986   HW2  18.4400   3.0600   5.9300 H     1   SOL   0.4170
7987    OW  31.0400   5.8800  13.8300 O     1   SOL  -0.8340
7988   HW1  30.1100   5.8700  14.0400 H     1   SOL   0.4170
7989   HW2  31.2000   6.7500  13.4700 H     1   SOL   0.4170
7990    OW   3.6600  20.3000  23.2500 O     1   SOL  -0.8340
7991   HW1   3.7100  20.1500  22.3000 H     1   SOL   0.4170
7992   HW2   4.3500  19.7500  23.6100 H     1   SOL   0.4170
7993    OW  19.9000  10.9800   6.6400 O     1   SOL  -0.8340
7994   HW1  20.5600  10.2900   6.6400 H     1   SOL   0.4170
7995   HW2  19.0700  10.5200   6.5200 H     1   SOL   0.4170
7996    OW   8.5300  30.8500  18.4100 O     1   SOL  -0.8340
7997   HW1   9.1500  31.5000  18.0900 H     1   SOL   0.4170
7998   HW2   7.8800  30.7700  17.7100 H     1   SOL   0.4170
7999    OW  29.6300  12.9300  24.3100 O     1   SOL  -0.8340
8000   HW1  29.2900  12.6100  23.4800 H     1   SOL   0.4170
8001   HW2  29.0400  13.6500  24.5500 H     1   SOL   0.4170
8002    OW   2.8300   1.1800  22.6200 O     1   SOL  -0.8340
8003   HW1   2.2700   1.2200  23.3900 H     1   SOL   0.4170
8004   HW2   2.6200   0.3400  22.2100 H     1   SOL   0.4170
8005    OW  43.0100  26.3000  12.7700 O     1   SOL  -0.8340
8006   HW1  42.8200  25.7800  13.5500 H     1   SOL   0.4170
8007   HW2  43.5800  25.7400  12.2400 H     1   SOL   0.4170
8008    OW  18.1200   5.7000   6.4600 O     1   SOL  -0.8340
8009   HW1  17.5500   4.9500   6.6100 H     1   SOL   0.4170
8010   HW2  17.9000   6.3200   7.1500 H     1   SOL   0.4170
8011    OW  25.4500  10.2000  11.4100 O     1   SOL  -0.8340
8012   HW1  24.5700   9.8600  11.5700 H     1   SOL   0.4170
8013   HW2  25.9500   9.4400  11.1300 H     1   SOL   0.4170
8014    OW  29.5000  15.1900  16.1200 O     1   SOL  -0.8340
8015   HW1  30.0700  14.4100  16.0800 H     1   SOL   0.4170
8016   HW2  28.6900  14.9100  15.6900 H     1   SOL   0.4170
8017    OW  27.5200   0.4800   9.4900 O     1   SOL  -0.8340
8018   HW1  27.6000   1.4300   9.5800 H     1   SOL   0.4170
8019   HW2  26.7400   0.2500  10.0000 H     1   SOL   0.4170
8020    OW  28.4200   9.1000   8.4200 O     1   SOL  -0.8340
8021   HW1  28.4900   8.7000   7.5600 H     1   SOL   0.4170
8022   HW2  27.9400   9.9200   8.2700 H     1   SOL   0.4170
8023    OW  16.7200   2.2700  31.1300 O     1   SOL  -0.8340
8024   HW1  16.9300   3.0800  30.6700 H     1   SOL   0.4170
8025   HW2  16.8500   1.5800  30.4800 H     1   SOL   0.4170
8026    OW  19.5400  15.0100  32.3200 O     1   SOL  -0.8340
8027   HW1  18.7900  14.5800  32.7200 H     1   SOL   0.4170
8028   HW2  19.3500  15.9500  32.3800 H     1   SOL   0.4170
8029    OW  23.1200  19.6500   9.7500 O     1   SOL  -0.8340
8030   HW1  23.4500  19.9300   8.8900 H     1   SOL   0.4170
8031   HW2  23.8700  19.2300  10.1700 H     1   SOL   0.4170
8032    OW  19.4300  11.1500   9.4000 O     1   SOL  -0.8340
8033   HW1  19.0500  12.0300   9.3700 H     1   SOL   0.4170
8034   HW2  19.8600  11.0500   8.5500 H     1   SOL   0.4170
8035    OW  32.2100   8.4800  36.7900 O     1   SOL  -0.8340
8036   HW1  32.2900   7.5200  36.7500 H     1   SOL   0.4170
8037   HW2  32.1600   8.6800  37.7200 H     1   SOL   0.4170
8038    OW  35.3500  36.5700  12.8000 O     1   SOL  -0.8340
8039   HW1  34.7700  36.5600  12.0300 H     1   SOL   0.4170
8040   HW2  36.1600  36.1700  12.4900 H     1   SOL   0.4170
8041    OW  32.8000  12.6000  25.9800 O     1   SOL  -0.8340
8042   HW1  32.1200  11.9300  25.9600 H     1   SOL   0.4170
8043   HW2  33.6200  12.1200  26.0700 H     1   SOL   0.4170
8044    OW  20.5600   8.5900   9.7900 O     1   SOL  -0.8340
8045   HW1  20.3000   9.5200   9.7800 H     1   SOL   0.4170
8046   HW2  20.6100   8.3600   8.8600 H     1   SOL   0.4170
8047    OW  21.9300  26.5900  17.3500 O     1   SOL  -0.8340
8048   HW1  22.2100  27.4900  17.1900 H     1   SOL   0.4170
8049   HW2  21.2400  26.6700  18.0100 H     1   SOL   0.4170
8050    OW  30.4900  18.4400   6.7000 O     1   SOL  -0.8340
8051   HW1  30.9000  17.7300   7.2000 H     1   SOL   0.4170
8052   HW2  30.3900  18.0800   5.8100 H     1   SOL   0.4170
8053    OW  22.2400   9.1200   6.7100 O     1   SOL  -0.8340
8054   HW1  22.6700   9.1500   7.5600 H     1   SOL   0.4170
8055   HW2  21.9600   8.2000   6.6100 H     1   SOL   0.4170
8056    OW  24.3800  20.9300   7.4200 O     1   SOL  -0.8340
8057   HW1  24.8700  20.2200   7.8200 H     1   SOL   0.4170
8058   HW2  24.6500  20.9400   6.5100 H     1   SOL   0.4170
8059    OW  12.6300  11.1200   6.4500 O     1   SOL  -0.8340
8060   HW1  12.1100  11.9100   6.5700 H     1   SOL   0.4170
8061   HW2  12.0500  10.5100   5.9900 H     1   SOL   0.4170
8062    OW  36.1600   1.4900  15.9800 O     1   SOL  -0.8340
8063   HW1  35.2700   1.8400  15.9000 H     1   SOL   0.4170
8064   HW2  36.0600   0.6900  16.4900 H     1   SOL   0.4170
8065    OW  26.7000   1.1800  14.5200 O     1   SOL  -0.8340
8066   HW1  26.5800   0.3400  14.9600 H     1   SOL   0.4170
8067   HW2  26.4700   1.0000  13.6000 H     1   SOL   0.4170
8068    OW  39.7000  42.6800  16.3100 O     1   SOL  -0.8340
8069   HW1  39.5600  42.5300  15.3700 H     1   SOL   0.4170
8070   HW2  40.5600  42.2900  16.4800 H     1   SOL   0.4170
8071    OW  29.3400  18.5700  27.7200 O     1   SOL  -0.8340
8072   HW1  29.4700  19.5000  27.5100 H     1   SOL   0.4170
8073   HW2  28.4000  18.4900  27.8700 H     1   SOL   0.4170
8074    OW   7.6800   5.6200  27.0100 O     1   SOL  -0.8340
8075   HW1   8.3400   5.1400  27.5200 H     1   SOL   0.4170
8076   HW2   7.8800   5.4100  26.1000 H     1   SOL   0.4170
8077    OW  19.2800   7.7100  20.8200 O     1   SOL  -0.8340
8078   HW1  19.8400   7.3400  20.1400 H     1   SOL   0.4170
8079   HW2  18.4400   7.8700  20.3700 H     1   SOL   0.4170
8080    OW  33.0100   4.0000  13.5900 O     1   SOL  -0.8340
8081   HW1  32.7300   3.1200  13.8300 H     1   SOL   0.4170
8082   HW2  32.2900   4.5700  13.8700 H     1   SOL   0.4170
8083    OW  13.3400  13.2000  26.1000 O     1   SOL  -0.8340
8084   HW1  13.6400  13.6000  26.9200 H     1   SOL   0.4170
8085   HW2  14.0700  12.6500  25.8300 H     1   SOL   0.4170
8086    OW   7.5300  11.6400  14.5200 O     1   SOL  -0.8340
8087   HW1   7.8500  10.7500  14.6800 H     1   SOL   0.4170
8088   HW2   7.7700  12.1300  15.3000 H     1   SOL   0.4170
8089    OW  23.9400  39.2600  14.7700 O     1   SOL  -0.8340
8090   HW1  24.0000  39.7500  13.9500 H     1   SOL   0.4170
8091   HW2  23.0800  39.4900  15.1300 H     1   SOL   0.4170
8092    OW  21.4600   0.9200  18.0500 O     1   SOL  -0.8340
8093   HW1  20.8600   0.8600  17.3100 H     1   SOL   0.4170
8094   HW2  21.3900   0.0700  18.4800 H     1   SOL   0.4170
8095    OW   8.6600  34.4000  26.5100 O     1   SOL  -0.8340
8096   HW1   9.3800  34.1700  27.1100 H     1   SOL   0.4170
8097   HW2   7.8700  34.2800  27.0400 H     1   SOL   0.4170
8098    OW  33.9400   3.1100  22.4400 O     1   SOL  -0.8340
8099   HW1  33.5900   3.4700  23.2600 H     1   SOL   0.4170
8100   HW2  34.2900   2.2500  22.6900 H     1   SOL   0.4170
8101    OW  30.5200   2.5400  20.0200 O     1   SOL  -0.8340
8102   HW1  31.4200   2.5300  19.6900 H     1   SOL   0.4170
8103   HW2  30.4800   3.3200  20.5800 H     1   SOL   0.4170
8104    OW  38.9900  15.0300   7.0200 O     1   SOL  -0.8340
8105   HW1  39.1500  15.4200   7.8800 H     1   SOL   0.4170
8106   HW2  38.3500  15.6100   6.6100 H     1   SOL   0.4170
8107    OW  32.2500  22.7700  27.6800 O     1   SOL  -0.8340
8108   HW1  32.1900  23.0500  26.7700 H     1   SOL   0.4170
8109   HW2  32.7500  21.9600  27.6600 H     1   SOL   0.4170
8110    OW  39.4500  12.1500  12.5700 O     1   SOL  -0.8340
8111   HW1  38.5800  11.7700  12.5000 H     1   SOL   0.4170
8112   HW2  39.3100  13.0900  12.4800 H     1   SOL   0.4170
8113    OW  20.5700   1.9200  15.1200 O     1   SOL  -0.8340
8114   HW1  21.4600   2.2600  15.0300 H     1   SOL   0.4170
8115   HW2  20.5800   1.0900  14.6400 H     1   SOL   0.4170
8116    OW  23.4300  10.1300  14.7800 O     1   SOL  -0.8340
8117   HW1  23.1500  10.5300  13.9600 H     1   SOL   0.4170
8118   HW2  23.1200  10.7200  15.4600 H     1   SOL   0.4170
8119    OW  38.6000  14.4800  15.5200 O     1   SOL  -0.8340
8120   HW1  38.6600  13.6300  15.0800 H     1   SOL   0.4170
8121   HW2  38.0200  14.3300  16.2600 H     1   SOL   0.4170
8122    OW  33.3700   4.9300  17.4500 O     1   SOL  -0.8340
8123   HW1  33.5500   4.2700  18.1200 H     1   SOL   0.4170
8124   HW2  33.5200   5.7700  17.8800 H     1   SOL   0.4170
8125    OW  34.2700  15.5900  16.8800 O     1   SOL  -0.8340
8126   HW1  33.7100  15.2300  17.5700 H     1   SOL   0.4170
8127   HW2  34.8700  14.8800  16.6600 H     1   SOL   0.4170
8128    OW  24.8300  13.4400  29.3400 O     1   SOL  -0.8340
8129   HW1  25.1100  12.6900  28.8300 H     1   SOL   0.4170
8130   HW2  23.9400  13.6200  29.0400 H     1   SOL   0.4170
8131    OW   7.0200  38.9900  46.0700 O     1   SOL  -0.8340
8132   HW1   6.3300  39.0300  46.7300 H     1   SOL   0.4170
8133   HW2   6.5900  38.6500  45.2900 H     1   SOL   0.4170
8134    OW  34.2900  10.3700  23.9500 O     1   SOL  -0.8340
8135   HW1  33.6500  10.6400  24.6100 H     1   SOL   0.4170
8136   HW2  33.8800   9.6200  23.5100 H     1   SOL   0.4170
8137    OW  23.1700  41.6000   8.9600 O     1   SOL  -0.8340
8138   HW1  22.2900  41.3000   8.7100 H     1   SOL   0.4170
8139   HW2  23.7600  41.1700   8.3400 H     1   SOL   0.4170
8140    OW  11.7800  42.1600  21.0400 O     1   SOL  -0.8340
8141   HW1  12.3500  41.7400  21.6800 H     1   SOL   0.4170
8142   HW2  11.4500  42.9400  21.4800 H     1   SOL   0.4170
8143    OW  12.6300   3.1200  12.3900 O     1   SOL  -0.8340
8144   HW1  11.8000   3.4300  12.0300 H     1   SOL   0.4170
8145   HW2  13.0900   2.7400  11.6400 H     1   SOL   0.4170
8146    OW  32.3900   0.2600  17.7000 O     1   SOL  -0.8340
8147   HW1  33.1000  -0.3700  17.5800 H     1   SOL   0.4170
8148   HW2  31.6000  -0.2200  17.4400 H     1   SOL   0.4170
8149    OW   9.7700  15.5500  20.4900 O     1   SOL  -0.8340
8150   HW1  10.3800  14.9500  20.0600 H     1   SOL   0.4170
8151   HW2   9.6000  15.1500  21.3400 H     1   SOL   0.4170
8152    OW  35.1300  11.1600  26.9500 O     1   SOL  -0.8340
8153   HW1  35.7000  10.8700  27.6600 H     1   SOL   0.4170
8154   HW2  35.7300  11.3400  26.2200 H     1   SOL   0.4170
8155    OW  42.6700   3.5500  33.0100 O     1   SOL  -0.8340
8156   HW1  43.2700   2.8300  32.8200 H     1   SOL   0.4170
8157   HW2  42.0200   3.5200  32.3100 H     1   SOL   0.4170
8158    OW   8.4600  10.7600  35.2600 O     1   SOL  -0.8340
8159   HW1   8.0500  10.0400  35.7400 H     1   SOL   0.4170
8160   HW2   9.2200  11.0000  35.8000 H     1   SOL   0.4170
8161    OW  24.7100  14.7100  12.8100 O     1   SOL  -0.8340
8162   HW1  25.2600  15.3300  12.3300 H     1   SOL   0.4170
8163   HW2  23.8800  14.6900  12.3200 H     1   SOL   0.4170
8164    OW  36.1500  28.6100  16.7500 O     1   SOL  -0.8340
8165   HW1  37.0000  28.8300  16.3800 H     1   SOL   0.4170
8166   HW2  35.5900  28.4400  15.9900 H     1   SOL   0.4170
8167    OW  38.1600  12.5800  17.2900 O     1   SOL  -0.8340
8168   HW1  38.7000  12.5500  18.0800 H     1   SOL   0.4170
8169   HW2  38.6700  12.1100  16.6300 H     1   SOL   0.4170
8170    OW  18.3800   5.6900  13.7700 O     1   SOL  -0.8340
8171   HW1  18.2600   4.9600  14.3900 H     1   SOL   0.4170
8172   HW2  18.9700   6.2900  14.2200 H     1   SOL   0.4170
8173    OW  28.5000   1.7400  16.9300 O     1   SOL  -0.8340
8174   HW1  28.8400   2.5200  17.3800 H     1   SOL   0.4170
8175   HW2  27.5800   1.9400  16.7600 H     1   SOL   0.4170
8176    OW  13.5100   7.0200  24.7300 O     1   SOL  -0.8340
8177   HW1  14.3700   6.8200  25.1000 H     1   SOL   0.4170
8178   HW2  13.1500   6.1600  24.5000 H     1   SOL   0.4170
8179    OW  30.2600  12.0600  18.7400 O     1   SOL  -0.8340
8180   HW1  29.7500  12.8400  18.9900 H     1   SOL   0.4170
8181   HW2  29.6100  11.4500  18.3800 H     1   SOL   0.4170
8182    OW  39.4400  29.2500  13.1200 O     1   SOL  -0.8340
8183   HW1  39.7700  30.1500  13.1800 H     1   SOL   0.4170
8184   HW2  40.1200  28.7800  12.6400 H     1   SOL   0.4170
8185    OW  20.2300   0.1400   6.7500 O     1   SOL  -0.8340
8186   HW1  21.1800   0.2600   6.7900 H     1   SOL   0.4170
8187   HW2  19.8900   0.9900   6.4700 H     1   SOL   0.4170
8188    OW  29.1300  30.6900   9.8200 O     1   SOL  -0.8340
8189   HW1  28.4500  30.4400  10.4500 H     1   SOL   0.4170
8190   HW2  29.9400  30.6900  10.3200 H     1   SOL   0.4170
8191    OW   0.1200  20.1000  11.7800 O     1   SOL  -0.8340
8192   HW1   0.8200  20.6700  12.1000 H     1   SOL   0.4170
8193   HW2  -0.2300  20.5600  11.0100 H     1   SOL   0.4170
8194    OW  32.4800   5.3400   6.9600 O     1   SOL  -0.8340
8195   HW1  33.2200   4.7400   6.8700 H     1   SOL   0.4170
8196   HW2  31.7800   4.9500   6.4400 H     1   SOL   0.4170
8197    OW  26.0900  32.4200  11.0600 O     1   SOL  -0.8340
8198   HW1  25.5600  32.3400  11.8600 H     1   SOL   0.4170
8199   HW2  25.5400  32.0600  10.3700 H     1   SOL   0.4170
8200    OW  24.1900   2.6900  23.3400 O     1   SOL  -0.8340
8201   HW1  23.4000   2.4800  22.8300 H     1   SOL   0.4170
8202   HW2  24.7300   1.9000  23.2900 H     1   SOL   0.4170
8203    OW  38.6800  38.4800  28.5700 O     1   SOL  -0.8340
8204   HW1  37.9400  37.9200  28.3700 H     1   SOL   0.4170
8205   HW2  38.7500  39.0600  27.8200 H     1   SOL   0.4170
8206    OW  29.8900   6.3500   9.0500 O     1   SOL  -0.8340
8207   HW1  29.7000   7.2400   8.7500 H     1   SOL   0.4170
8208   HW2  30.7000   6.4300   9.5600 H     1   SOL   0.4170
8209    OW  33.6300   3.8200  10.9400 O     1   SOL  -0.8340
8210   HW1  33.2300   3.8200  11.8100 H     1   SOL   0.4170
8211   HW2  34.5700   3.9000  11.1000 H     1   SOL   0.4170
8212    OW  20.6200  41.7200  22.1400 O     1   SOL  -0.8340
8213   HW1  20.2100  41.3900  22.9400 H     1   SOL   0.4170
8214   HW2  21.5400  41.4600  22.2200 H     1   SOL   0.4170
8215    OW  39.9000   7.0300  22.5600 O     1   SOL  -0.8340
8216   HW1  39.8800   6.0800  22.4900 H     1   SOL   0.4170
8217   HW2  39.7400   7.2200  23.4800 H     1   SOL   0.4170
8218    OW  23.0100   2.0700  20.8000 O     1   SOL  -0.8340
8219   HW1  22.5100   2.1100  19.9900 H     1   SOL   0.4170
8220   HW2  23.7800   2.6300  20.6400 H     1   SOL   0.4170
8221    OW  40.4700  25.5100   7.1600 O     1   SOL  -0.8340
8222   HW1  40.5900  26.1500   7.8600 H     1   SOL   0.4170
8223   HW2  41.3100  25.0400   7.1100 H     1   SOL   0.4170
8224    OW  20.8200   6.7200  14.8600 O     1   SOL  -0.8340
8225   HW1  21.6000   6.7600  14.3100 H     1   SOL   0.4170
8226   HW2  21.0200   6.0500  15.5200 H     1   SOL   0.4170
8227    OW  11.8500  10.7000  21.0800 O     1   SOL  -0.8340
8228   HW1  11.3600  10.6000  21.9000 H     1   SOL   0.4170
8229   HW2  11.4000  11.4100  20.6200 H     1   SOL   0.4170
8230    OW  13.4500   9.2900  26.0500 O     1   SOL  -0.8340
8231   HW1  13.0800   8.4300  25.8900 H     1   SOL   0.4170
8232   HW2  13.9300   9.5100  25.2500 H     1   SOL   0.4170
8233    OW  37.1300  40.1200   9.2200 O     1   SOL  -0.8340
8234   HW1  37.6300  40.0200  10.0300 H     1   SOL   0.4170
8235   HW2  37.6800  39.7100   8.5400 H     1   SOL   0.4170
8236    OW  39.7800  19.4400  11.7500 O     1   SOL  -0.8340
8237   HW1  39.4000  19.2700  12.6100 H     1   SOL   0.4170
8238   HW2  40.6300  19.8500  11.9400 H     1   SOL   0.4170
8239    OW  24.2900  11.1000   6.6700 O     1   SOL  -0.8340
8240   HW1  23.4600  11.5500   6.5500 H     1   SOL   0.4170
8241   HW2  24.1400  10.2200   6.3300 H     1   SOL   0.4170
8242    OW  42.5400  10.5900   9.2600 O     1   SOL  -0.8340
8243   HW1  42.0400  10.7400  10.0600 H     1   SOL   0.4170
8244   HW2  43.1600   9.9000   9.4800 H     1   SOL   0.4170
8245    OW  28.9900  12.2400  21.7700 O     1   SOL  -0.8340
8246   HW1  28.1500  12.1800  21.3200 H     1   SOL   0.4170
8247   HW2  29.3500  11.3500  21.7400 H     1   SOL   0.4170
8248    OW  40.1200   8.0800  10.5200 O     1   SOL  -0.8340
8249   HW1  40.4200   8.9500  10.7700 H     1   SOL   0.4170
8250   HW2  39.8100   7.6800  11.3300 H     1   SOL   0.4170
8251    OW  12.4900   4.2200  24.5900 O     1   SOL  -0.8340
8252   HW1  13.0600   3.8400  23.9100 H     1   SOL   0.4170
8253   HW2  12.7600   3.7900  25.4000 H     1   SOL   0.4170
8254    OW  26.8000   8.0100  10.5900 O     1   SOL  -0.8340
8255   HW1  27.3500   8.3600   9.8800 H     1   SOL   0.4170
8256   HW2  26.9600   7.0700  10.5700 H     1   SOL   0.4170
8257    OW   9.5200   4.0000  27.9400 O     1   SOL  -0.8340
8258   HW1  10.3600   3.5600  27.8400 H     1   SOL   0.4170
8259   HW2   9.2500   3.8100  28.8400 H     1   SOL   0.4170
8260    OW  35.6900  13.1100  16.1600 O     1   SOL  -0.8340
8261   HW1  36.3700  12.9100  16.8000 H     1   SOL   0.4170
8262   HW2  35.2400  12.2800  16.0200 H     1   SOL   0.4170
8263    OW  35.2600  10.1200  34.4500 O     1   SOL  -0.8340
8264   HW1  35.5900   9.4200  35.0100 H     1   SOL   0.4170
8265   HW2  35.9300  10.2400  33.7800 H     1   SOL   0.4170
8266    OW  32.2900  43.0900  23.4600 O     1   SOL  -0.8340
8267   HW1  31.5900  43.7000  23.2200 H     1   SOL   0.4170
8268   HW2  32.0400  42.7900  24.3400 H     1   SOL   0.4170
8269    OW  30.4200  11.1000  37.7600 O     1   SOL  -0.8340
8270   HW1  30.2300  10.7800  36.8800 H     1   SOL   0.4170
8271   HW2  30.7200  12.0000  37.6300 H     1   SOL   0.4170
8272    OW  20.4400   8.7700  44.3300 O     1   SOL  -0.8340
8273   HW1  20.5600   7.8600  44.6100 H     1   SOL   0.4170
8274   HW2  21.1100   8.8900  43.6500 H     1   SOL   0.4170
8275    OW  25.9100   1.6300  30.2500 O     1   SOL  -0.8340
8276   HW1  26.6900   1.1500  30.5200 H     1   SOL   0.4170
8277   HW2  25.2100   0.9700  30.2500 H     1   SOL   0.4170
8278    OW  14.6900   9.1900  23.6100 O     1   SOL  -0.8340
8279   HW1  14.5500   9.6600  22.7900 H     1   SOL   0.4170
8280   HW2  14.5100   8.2700  23.4000 H     1   SOL   0.4170
8281    OW  26.9500   2.7000  27.9500 O     1   SOL  -0.8340
8282   HW1  27.3200   1.9000  27.5900 H     1   SOL   0.4170
8283   HW2  26.5800   2.4500  28.7900 H     1   SOL   0.4170
8284    OW  35.2800  27.6200  22.5300 O     1   SOL  -0.8340
8285   HW1  34.5200  27.8100  21.9900 H     1   SOL   0.4170
8286   HW2  35.0600  27.9900  23.3900 H     1   SOL   0.4170
8287    OW  19.3900  10.3400  12.4800 O     1   SOL  -0.8340
8288   HW1  18.8600  11.1200  12.3000 H     1   SOL   0.4170
8289   HW2  19.3900   9.8500  11.6600 H     1   SOL   0.4170
8290    OW  11.0900   4.5200  38.7600 O     1   SOL  -0.8340
8291   HW1  11.6800   5.2600  38.9300 H     1   SOL   0.4170
8292   HW2  11.2500   3.9200  39.4900 H     1   SOL   0.4170
8293    OW  28.4200   5.4700  23.7800 O     1   SOL  -0.8340
8294   HW1  27.5200   5.5300  23.4700 H     1   SOL   0.4170
8295   HW2  28.3600   5.0200  24.6200 H     1   SOL   0.4170
8296    OW  26.2400  20.4300  31.0700 O     1   SOL  -0.8340
8297   HW1  27.1300  20.7800  30.9900 H     1   SOL   0.4170
8298   HW2  26.2200  19.6900  30.4600 H     1   SOL   0.4170
8299    OW  41.9500  11.8700  38.0300 O     1   SOL  -0.8340
8300   HW1  42.1000  11.9600  37.0900 H     1   SOL   0.4170
8301   HW2  41.9300  10.9200  38.1800 H     1   SOL   0.4170
8302    OW   2.7900  32.3000  38.1300 O     1   SOL  -0.8340
8303   HW1   2.0300  31.7600  38.3100 H     1   SOL   0.4170
8304   HW2   3.5400  31.7200  38.2600 H     1   SOL   0.4170
8305    OW  21.9800  39.2800  18.9800 O     1   SOL  -0.8340
8306   HW1  22.6700  39.0100  19.5900 H     1   SOL   0.4170
8307   HW2  21.3400  38.5600  19.0000 H     1   SOL   0.4170
8308    OW  39.5100  11.4000  15.2800 O     1   SOL  -0.8340
8309   HW1  39.0000  10.6000  15.3700 H     1   SOL   0.4170
8310   HW2  40.0200  11.2700  14.4800 H     1   SOL   0.4170
8311    OW  29.1900   6.9100  19.5700 O     1   SOL  -0.8340
8312   HW1  28.9100   6.9700  18.6600 H     1   SOL   0.4170
8313   HW2  29.0600   7.8000  19.9200 H     1   SOL   0.4170
8314    OW  15.5200   2.8500  33.8200 O     1   SOL  -0.8340
8315   HW1  15.6100   2.0200  34.2900 H     1   SOL   0.4170
8316   HW2  15.6400   2.6100  32.9000 H     1   SOL   0.4170
8317    OW  22.4000  16.2100  11.7700 O     1   SOL  -0.8340
8318   HW1  22.0300  16.7100  12.4900 H     1   SOL   0.4170
8319   HW2  21.7000  15.6000  11.5200 H     1   SOL   0.4170
8320    OW  42.9400  15.9400  43.9000 O     1   SOL  -0.8340
8321   HW1  43.2200  15.7400  43.0100 H     1   SOL   0.4170
8322   HW2  42.9300  16.9000  43.9300 H     1   SOL   0.4170
8323    OW  28.0500  40.5600  18.0900 O     1   SOL  -0.8340
8324   HW1  28.0000  39.6100  18.0600 H     1   SOL   0.4170
8325   HW2  27.5200  40.8100  18.8500 H     1   SOL   0.4170
8326    OW  26.2200   6.7100  37.7100 O     1   SOL  -0.8340
8327   HW1  26.3100   6.3000  36.8500 H     1   SOL   0.4170
8328   HW2  25.6400   7.4600  37.5600 H     1   SOL   0.4170
8329    OW  22.8400  42.7700  45.9300 O     1   SOL  -0.8340
8330   HW1  23.3300  43.5600  46.1400 H     1   SOL   0.4170
8331   HW2  22.9100  42.6800  44.9700 H     1   SOL   0.4170
8332    OW  16.5500  10.6200  38.9200 O     1   SOL  -0.8340
8333   HW1  15.9900   9.8900  39.1800 H     1   SOL   0.4170
8334   HW2  16.3900  11.3000  39.5800 H     1   SOL   0.4170
8335    OW  13.7200   5.0400  17.1100 O     1   SOL  -0.8340
8336   HW1  12.8800   5.4200  17.3500 H     1   SOL   0.4170
8337   HW2  13.5100   4.4200  16.4100 H     1   SOL   0.4170
8338    OW   6.1800  19.3600  14.8500 O     1   SOL  -0.8340
8339   HW1   6.4200  19.1300  13.9500 H     1   SOL   0.4170
8340   HW2   6.9800  19.1900  15.3600 H     1   SOL   0.4170
8341    OW  35.5700   0.5500  33.4300 O     1   SOL  -0.8340
8342   HW1  35.6300   1.4000  33.8700 H     1   SOL   0.4170
8343   HW2  36.3500   0.5000  32.8800 H     1   SOL   0.4170
8344    OW   6.9500   3.0700  34.4900 O     1   SOL  -0.8340
8345   HW1   6.6400   3.9500  34.2600 H     1   SOL   0.4170
8346   HW2   7.6700   2.9000  33.8800 H     1   SOL   0.4170
8347    OW   1.7300   1.6600  39.9200 O     1   SOL  -0.8340
8348   HW1   1.7200   2.3900  40.5400 H     1   SOL   0.4170
8349   HW2   1.4400   0.9000  40.4400 H     1   SOL   0.4170
8350    OW  26.5800   4.9700  26.2500 O     1   SOL  -0.8340
8351   HW1  26.1000   5.7500  26.5500 H     1   SOL   0.4170
8352   HW2  26.6200   4.4000  27.0200 H     1   SOL   0.4170
8353    OW  19.0500  43.1800  31.3500 O     1   SOL  -0.8340
8354   HW1  19.9700  43.0200  31.1400 H     1   SOL   0.4170
8355   HW2  18.8100  42.4600  31.9400 H     1   SOL   0.4170
8356    OW   1.0700  15.2500  24.0800 O     1   SOL  -0.8340
8357   HW1   0.2400  14.7900  24.1500 H     1   SOL   0.4170
8358   HW2   0.9600  16.0300  24.6100 H     1   SOL   0.4170
8359    OW  24.6900  32.2600  20.4100 O     1   SOL  -0.8340
8360   HW1  24.3800  31.3600  20.3200 H     1   SOL   0.4170
8361   HW2  24.9100  32.5200  19.5200 H     1   SOL   0.4170
8362    OW  11.4600  23.9500  20.0700 O     1   SOL  -0.8340
8363   HW1  11.9900  23.9600  20.8700 H     1   SOL   0.4170
8364   HW2  11.9600  24.4600  19.4400 H     1   SOL   0.4170
8365    OW  24.6600  19.8800  25.9100 O     1   SOL  -0.8340
8366   HW1  23.8900  19.5900  26.4000 H     1   SOL   0.4170
8367   HW2  24.3100  20.4600  25.2400 H     1   SOL   0.4170
8368    OW  11.9900   2.5300  34.1600 O     1   SOL  -0.8340
8369   HW1  12.7000   2.7500  33.5600 H     1   SOL   0.4170
8370   HW2  12.1300   3.1000  34.9200 H     1   SOL   0.4170
8371    OW  25.9300   3.1300   9.5300 O     1   SOL  -0.8340
8372   HW1  26.6000   3.7400   9.8400 H     1   SOL   0.4170
8373   HW2  25.1200   3.4100   9.9500 H     1   SOL   0.4170
8374    OW  13.3100  15.9900  44.0400 O     1   SOL  -0.8340
8375   HW1  12.6300  15.3500  44.2800 H     1   SOL   0.4170
8376   HW2  13.2300  16.0700  43.0900 H     1   SOL   0.4170
8377    OW  16.0900   6.7500  15.8400 O     1   SOL  -0.8340
8378   HW1  15.2100   6.3800  15.9100 H     1   SOL   0.4170
8379   HW2  16.1100   7.1700  14.9900 H     1   SOL   0.4170
8380    OW  25.6300  33.4100  39.0200 O     1   SOL  -0.8340
8381   HW1  25.7500  32.8900  38.2300 H     1   SOL   0.4170
8382   HW2  26.0600  34.2400  38.8400 H     1   SOL   0.4170
8383    OW  16.6800  16.4900  34.5500 O     1   SOL  -0.8340
8384   HW1  17.5800  16.4300  34.8600 H     1   SOL   0.4170
8385   HW2  16.2200  15.7700  35.0100 H     1   SOL   0.4170
8386    OW  22.6000  20.3500  29.4200 O     1   SOL  -0.8340
8387   HW1  23.4300  20.6900  29.7700 H     1   SOL   0.4170
8388   HW2  22.4000  20.9300  28.6900 H     1   SOL   0.4170
8389    OW  22.3000  11.2600  17.2600 O     1   SOL  -0.8340
8390   HW1  21.5700  10.7200  16.9600 H     1   SOL   0.4170
8391   HW2  21.8900  12.0400  17.6300 H     1   SOL   0.4170
8392    OW  12.4800  40.4200  45.3900 O     1   SOL  -0.8340
8393   HW1  13.2900  40.8300  45.7100 H     1   SOL   0.4170
8394   HW2  11.7900  40.8300  45.9200 H     1   SOL   0.4170
8395    OW  17.2500   0.5600  42.7400 O     1   SOL  -0.8340
8396   HW1  16.3700   0.8500  42.5300 H     1   SOL   0.4170
8397   HW2  17.1300  -0.3000  43.1400 H     1   SOL   0.4170
8398    OW  32.9400  19.7800  13.9000 O     1   SOL  -0.8340
8399   HW1  33.2800  19.0300  14.4000 H     1   SOL   0.4170
8400   HW2  31.9900  19.7300  14.0200 H     1   SOL   0.4170
8401    OW  41.0000  12.7300  47.5100 O     1   SOL  -0.8340
8402   HW1  41.2600  13.5700  47.1400 H     1   SOL   0.4170
8403   HW2  40.8400  12.9100  48.4400 H     1   SOL   0.4170
8404    OW  30.8000  10.8600  29.2800 O     1   SOL  -0.8340
8405   HW1  30.8000  10.7800  30.2400 H     1   SOL   0.4170
8406   HW2  31.6900  10.6100  29.0200 H     1   SOL   0.4170
8407    OW  22.8300   6.6700  35.7100 O     1   SOL  -0.8340
8408   HW1  22.5000   7.0700  34.9000 H     1   SOL   0.4170
8409   HW2  22.2000   5.9700  35.9000 H     1   SOL   0.4170
8410    OW  30.8000  24.3800   8.9600 O     1   SOL  -0.8340
8411   HW1  31.5700  24.3800   9.5200 H     1   SOL   0.4170
8412   HW2  31.1300  24.5700   8.0900 H     1   SOL   0.4170
8413    OW  25.0000  39.4200  23.2400 O     1   SOL  -0.8340
8414   HW1  24.1700  39.4200  23.7300 H     1   SOL   0.4170
8415   HW2  25.6700  39.2700  23.9100 H     1   SOL   0.4170
8416    OW  27.0700  14.6900  15.1800 O     1   SOL  -0.8340
8417   HW1  26.6200  14.2400  14.4600 H     1   SOL   0.4170
8418   HW2  26.3800  14.8800  15.8200 H     1   SOL   0.4170
8419    OW  22.6600   8.8400  50.2900 O     1   SOL  -0.8340
8420   HW1  21.9800   8.2000  50.5000 H     1   SOL   0.4170
8421   HW2  23.1500   8.4300  49.5700 H     1   SOL   0.4170
8422    OW  20.7900  15.3600  18.0600 O     1   SOL  -0.8340
8423   HW1  21.4300  14.6500  18.1100 H     1   SOL   0.4170
8424   HW2  21.2700  16.1300  18.3900 H     1   SOL   0.4170
8425    OW  36.2000   8.4100  19.1300 O     1   SOL  -0.8340
8426   HW1  35.6300   9.1400  19.3700 H     1   SOL   0.4170
8427   HW2  37.0500   8.6300  19.5200 H     1   SOL   0.4170
8428    OW  12.6600  14.9900  24.2800 O     1   SOL  -0.8340
8429   HW1  13.0500  15.5900  24.9200 H     1   SOL   0.4170
8430   HW2  12.8500  14.1200  24.6100 H     1   SOL   0.4170
8431    OW  30.1800  39.0800  26.7200 O     1   SOL  -0.8340
8432   HW1  29.4700  38.4800  26.4700 H     1   SOL   0.4170
8433   HW2  30.9800  38.5800  26.5800 H     1   SOL   0.4170
8434    OW  30.2500  39.9100  23.5300 O     1   SOL  -0.8340
8435   HW1  30.8300  39.1600  23.4100 H     1   SOL   0.4170
8436   HW2  30.7800  40.6700  23.3100 H     1   SOL   0.4170
8437    OW  30.9200   6.8000  24.5000 O     1   SOL  -0.8340
8438   HW1  30.0800   6.5000  24.1600 H     1   SOL   0.4170
8439   HW2  31.0100   6.3700  25.3400 H     1   SOL   0.4170
8440    OW  26.4100   7.2000  30.6300 O     1   SOL  -0.8340
8441   HW1  27.1900   6.7400  30.3100 H     1   SOL   0.4170
8442   HW2  26.5500   8.1200  30.3800 H     1   SOL   0.4170
8443    OW  21.2600  37.3500  23.5200 O     1   SOL  -0.8340
8444   HW1  21.2000  36.5100  23.0600 H     1   SOL   0.4170
8445   HW2  20.3800  37.7300  23.4300 H     1   SOL   0.4170
8446    OW  25.9500  17.9700  29.7600 O     1   SOL  -0.8340
8447   HW1  26.1200  17.5400  28.9300 H     1   SOL   0.4170
8448   HW2  25.0000  17.9200  29.8700 H     1   SOL   0.4170
8449    OW  27.2700   5.7000  35.2500 O     1   SOL  -0.8340
8450   HW1  28.0500   5.7300  35.8100 H     1   SOL   0.4170
8451   HW2  27.4800   6.2900  34.5200 H     1   SOL   0.4170
8452    OW  32.1200  19.4200  30.5100 O     1   SOL  -0.8340
8453   HW1  31.3100  18.9900  30.7600 H     1   SOL   0.4170
8454   HW2  32.8000  18.7500  30.6200 H     1   SOL   0.4170
8455    OW  22.0400  29.1100  39.6000 O     1   SOL  -0.8340
8456   HW1  21.4700  29.0800  38.8300 H     1   SOL   0.4170
8457   HW2  22.2200  30.0500  39.7300 H     1   SOL   0.4170
8458    OW  20.8500  36.7000  19.3200 O     1   SOL  -0.8340
8459   HW1  19.9700  36.7300  19.6900 H     1   SOL   0.4170
8460   HW2  21.4100  36.4200  20.0400 H     1   SOL   0.4170
8461    OW  23.9700   0.3900  38.1000 O     1   SOL  -0.8340
8462   HW1  24.2700  -0.2500  38.7500 H     1   SOL   0.4170
8463   HW2  24.5100   1.1600  38.2600 H     1   SOL   0.4170
8464    OW  41.7100  30.5300  26.7800 O     1   SOL  -0.8340
8465   HW1  42.4600  30.3600  26.2200 H     1   SOL   0.4170
8466   HW2  41.2200  29.7100  26.7800 H     1   SOL   0.4170
8467    OW  22.9600  15.9200  26.6300 O     1   SOL  -0.8340
8468   HW1  22.9000  16.7800  27.0300 H     1   SOL   0.4170
8469   HW2  22.4400  15.9900  25.8200 H     1   SOL   0.4170
8470    OW  21.7800   5.0800  32.2100 O     1   SOL  -0.8340
8471   HW1  22.1200   5.8400  31.7300 H     1   SOL   0.4170
8472   HW2  22.5300   4.4900  32.2900 H     1   SOL   0.4170
8473    OW  33.7800  29.3400  32.5400 O     1   SOL  -0.8340
8474   HW1  33.1100  29.7700  32.0100 H     1   SOL   0.4170
8475   HW2  33.4500  28.4500  32.6600 H     1   SOL   0.4170
8476    OW  11.8800  41.8300  31.9600 O     1   SOL  -0.8340
8477   HW1  12.7500  42.2300  32.0200 H     1   SOL   0.4170
8478   HW2  11.3500  42.3200  32.5900 H     1   SOL   0.4170
8479    OW   7.9100  14.7300  27.2200 O     1   SOL  -0.8340
8480   HW1   8.2900  15.6000  27.2300 H     1   SOL   0.4170
8481   HW2   7.0600  14.8300  27.6600 H     1   SOL   0.4170
8482    OW   8.3200  17.7800  28.0100 O     1   SOL  -0.8340
8483   HW1   8.0500  17.9500  27.1100 H     1   SOL   0.4170
8484   HW2   9.2400  18.0400  28.0300 H     1   SOL   0.4170
8485    OW  26.6600  42.1000  16.0200 O     1   SOL  -0.8340
8486   HW1  27.0700  41.3000  16.3600 H     1   SOL   0.4170
8487   HW2  25.8900  42.2200  16.5700 H     1   SOL   0.4170
8488    OW  22.2700  35.2800  14.5500 O     1   SOL  -0.8340
8489   HW1  22.3600  35.8200  15.3400 H     1   SOL   0.4170
8490   HW2  21.3500  35.0200  14.5400 H     1   SOL   0.4170
8491    OW  12.7200  15.7800  21.8200 O     1   SOL  -0.8340
8492   HW1  12.9900  16.6700  21.6300 H     1   SOL   0.4170
8493   HW2  12.7500  15.7100  22.7700 H     1   SOL   0.4170
8494    OW  13.7300  37.7100  31.5600 O     1   SOL  -0.8340
8495   HW1  13.8700  37.0600  32.2500 H     1   SOL   0.4170
8496   HW2  13.2100  37.2500  30.9000 H     1   SOL   0.4170
8497    OW  21.5500  23.9400  19.3400 O     1   SOL  -0.8340
8498   HW1  21.2900  24.8600  19.4300 H     1   SOL   0.4170
8499   HW2  22.4000  23.9700  18.9000 H     1   SOL   0.4170
8500    OW  18.4900   8.3400  32.3800 O     1   SOL  -0.8340
8501   HW1  18.7900   8.3800  33.2900 H     1   SOL   0.4170
8502   HW2  19.1900   7.8800  31.9200 H     1   SOL   0.4170
8503    OW  32.7800  22.0900  30.5200 O     1   SOL  -0.8340
8504   HW1  32.5700  22.5700  29.7200 H     1   SOL   0.4170
8505   HW2  32.2800  21.2700  30.4500 H     1   SOL   0.4170
8506    OW  28.9900  18.5700  31.0700 O     1   SOL  -0.8340
8507   HW1  28.0600  18.5000  30.8600 H     1   SOL   0.4170
8508   HW2  29.0500  18.3400  32.0000 H     1   SOL   0.4170
8509    OW  28.7600  21.3300  30.9400 O     1   SOL  -0.8340
8510   HW1  29.1300  21.7500  30.1600 H     1   SOL   0.4170
8511   HW2  29.1000  20.4400  30.9100 H     1   SOL   0.4170
8512    OW  28.5800   8.2300  42.3300 O     1   SOL  -0.8340
8513   HW1  29.4100   8.5100  41.9500 H     1   SOL   0.4170
8514   HW2  28.7600   7.3700  42.7000 H     1   SOL   0.4170
8515    OW  13.3800  40.0100  35.8100 O     1   SOL  -0.8340
8516   HW1  13.3100  40.9600  35.9300 H     1   SOL   0.4170
8517   HW2  12.9200  39.6300  36.5600 H     1   SOL   0.4170
8518    OW  35.6900  10.5600  21.0400 O     1   SOL  -0.8340
8519   HW1  35.6200  10.7700  21.9700 H     1   SOL   0.4170
8520   HW2  36.6300  10.5300  20.8800 H     1   SOL   0.4170
8521    OW   9.8800  40.1400  47.5000 O     1   SOL  -0.8340
8522   HW1   9.2300  40.0800  46.8000 H     1   SOL   0.4170
8523   HW2   9.4000  39.8900  48.2900 H     1   SOL   0.4170
8524    OW  15.5400   0.9000  23.0700 O     1   SOL  -0.8340
8525   HW1  16.0500   1.6500  23.3800 H     1   SOL   0.4170
8526   HW2  16.1600   0.3700  22.5800 H     1   SOL   0.4170
8527    OW   7.1700  37.9700  34.7700 O     1   SOL  -0.8340
8528   HW1   8.0100  37.5200  34.6400 H     1   SOL   0.4170
8529   HW2   7.3900  38.9000  34.6900 H     1   SOL   0.4170
8530    OW  38.8200  10.0900  40.9900 O     1   SOL  -0.8340
8531   HW1  38.3600   9.8800  40.1800 H     1   SOL   0.4170
8532   HW2  39.3200   9.2900  41.1900 H     1   SOL   0.4170
8533    OW  16.3500   5.9000  25.5700 O     1   SOL  -0.8340
8534   HW1  17.1900   5.4600  25.4300 H     1   SOL   0.4170
8535   HW2  16.4900   6.4500  26.3400 H     1   SOL   0.4170
8536    OW  21.4400  26.2100  29.9700 O     1   SOL  -0.8340
8537   HW1  21.9200  25.7600  29.2700 H     1   SOL   0.4170
8538   HW2  20.7700  26.7200  29.5100 H     1   SOL   0.4170
8539    OW  20.8100  14.1800  34.8100 O     1   SOL  -0.8340
8540   HW1  20.6700  14.1200  33.8600 H     1   SOL   0.4170
8541   HW2  20.3300  14.9700  35.0700 H     1   SOL   0.4170
8542    OW  16.3200   2.7500  28.0400 O     1   SOL  -0.8340
8543   HW1  15.9100   2.9900  27.2100 H     1   SOL   0.4170
8544   HW2  16.1400   3.5000  28.6200 H     1   SOL   0.4170
8545    OW  19.6000  19.6700  47.7600 O     1   SOL  -0.8340
8546   HW1  18.7400  19.8100  48.1600 H     1   SOL   0.4170
8547   HW2  19.6000  18.7500  47.4900 H     1   SOL   0.4170
8548    OW   1.1000  27.5400  41.3900 O     1   SOL  -0.8340
8549   HW1   0.6000  27.8600  42.1400 H     1   SOL   0.4170
8550   HW2   1.1600  26.6000  41.5400 H     1   SOL   0.4170
8551    OW   0.8600  12.3400  46.2500 O     1   SOL  -0.8340
8552   HW1   1.0200  11.4700  46.6200 H     1   SOL   0.4170
8553   HW2  -0.0900  12.4600  46.3000 H     1   SOL   0.4170
8554    OW  33.4100  10.0200  29.1700 O     1   SOL  -0.8340
8555   HW1  34.0500   9.7500  28.5200 H     1   SOL   0.4170
8556   HW2  33.5300  10.9700  29.2600 H     1   SOL   0.4170
8557    OW  12.3700  29.3800  25.1000 O     1   SOL  -0.8340
8558   HW1  11.7000  28.9800  25.6600 H     1   SOL   0.4170
8559   HW2  11.9700  30.2100  24.8200 H     1   SOL   0.4170
8560    OW  25.3300  22.0900  42.2800 O     1   SOL  -0.8340
8561   HW1  26.2200  21.7400  42.1600 H     1   SOL   0.4170
8562   HW2  24.9400  21.5300  42.9500 H     1   SOL   0.4170
8563    OW  19.1400   4.5700  32.2200 O     1   SOL  -0.8340
8564   HW1  18.8600   4.6900  33.1300 H     1   SOL   0.4170
8565   HW2  20.1000   4.6200  32.2500 H     1   SOL   0.4170
8566    OW  23.3800   6.0800  13.8400 O     1   SOL  -0.8340
8567   HW1  23.0000   6.3600  13.0000 H     1   SOL   0.4170
8568   HW2  23.2100   5.1400  13.8800 H     1   SOL   0.4170
8569    OW  21.0200  12.8500  19.3400 O     1   SOL  -0.8340
8570   HW1  21.8400  12.9800  19.8100 H     1   SOL   0.4170
8571   HW2  20.4200  12.4900  20.0000 H     1   SOL   0.4170
8572    OW  28.8200  42.9600  24.1300 O     1   SOL  -0.8340
8573   HW1  27.9400  43.0300  23.7500 H     1   SOL   0.4170
8574   HW2  29.3800  43.4500  23.5200 H     1   SOL   0.4170
8575    OW  11.1200  12.5400  31.0600 O     1   SOL  -0.8340
8576   HW1  10.6400  12.4700  30.2300 H     1   SOL   0.4170
8577   HW2  10.5900  12.0400  31.6800 H     1   SOL   0.4170
8578    OW   6.8500   7.2800  24.6100 O     1   SOL  -0.8340
8579   HW1   6.9600   7.7300  23.7800 H     1   SOL   0.4170
8580   HW2   7.3000   6.4400  24.5000 H     1   SOL   0.4170
8581    OW  27.3600  11.0500   6.5900 O     1   SOL  -0.8340
8582   HW1  27.8400  11.8700   6.4700 H     1   SOL   0.4170
8583   HW2  26.4700  11.3300   6.8100 H     1   SOL   0.4170
8584    OW  23.9400   8.1200  40.3400 O     1   SOL  -0.8340
8585   HW1  23.6900   8.4600  39.4800 H     1   SOL   0.4170
8586   HW2  24.8900   8.0100  40.2800 H     1   SOL   0.4170
8587    OW  15.7800  14.5800  31.9700 O     1   SOL  -0.8340
8588   HW1  15.0800  14.0000  32.2600 H     1   SOL   0.4170
8589   HW2  16.5600  14.2400  32.4000 H     1   SOL   0.4170
8590    OW   5.2900   1.9000  22.2400 O     1   SOL  -0.8340
8591   HW1   4.4000   1.7700  22.5800 H     1   SOL   0.4170
8592   HW2   5.3500   2.8400  22.1000 H     1   SOL   0.4170
8593    OW  38.1500  35.3600  21.3800 O     1   SOL  -0.8340
8594   HW1  37.5600  35.0100  22.0500 H     1   SOL   0.4170
8595   HW2  37.6400  35.3400  20.5700 H     1   SOL   0.4170
8596    OW  32.1500  14.8800  27.1700 O     1   SOL  -0.8340
8597   HW1  31.6400  14.5000  27.8800 H     1   SOL   0.4170
8598   HW2  32.5700  14.1300  26.7400 H     1   SOL   0.4170
8599    OW  33.4400  38.0300  27.7600 O     1   SOL  -0.8340
8600   HW1  33.3000  38.9400  27.5000 H     1   SOL   0.4170
8601   HW2  34.1600  38.0700  28.3900 H     1   SOL   0.4170
8602    OW  24.0300  35.1700  30.6900 O     1   SOL  -0.8340
8603   HW1  24.6100  34.7400  30.0700 H     1   SOL   0.4170
8604   HW2  24.5500  35.8900  31.0500 H     1   SOL   0.4170
8605    OW   1.1700  21.4500  24.1600 O     1   SOL  -0.8340
8606   HW1   1.8900  20.9100  23.8400 H     1   SOL   0.4170
8607   HW2   1.4900  22.3500  24.0700 H     1   SOL   0.4170
8608    OW  22.3700  42.7100  34.9600 O     1   SOL  -0.8340
8609   HW1  21.6200  42.9700  35.4900 H     1   SOL   0.4170
8610   HW2  22.3600  43.3100  34.2200 H     1   SOL   0.4170
8611    OW   3.8100  10.1700  38.2500 O     1   SOL  -0.8340
8612   HW1   3.6900  10.8500  38.9100 H     1   SOL   0.4170
8613   HW2   4.0300   9.3800  38.7500 H     1   SOL   0.4170
8614    OW  21.8100   8.5000  33.6100 O     1   SOL  -0.8340
8615   HW1  21.8500   8.6700  32.6700 H     1   SOL   0.4170
8616   HW2  22.1700   9.3000  34.0100 H     1   SOL   0.4170
8617    OW  34.7100  12.8500  19.8200 O     1   SOL  -0.8340
8618   HW1  35.5500  13.3000  19.7800 H     1   SOL   0.4170
8619   HW2  34.8900  12.0400  20.2900 H     1   SOL   0.4170
8620    OW  16.6900  15.6000  41.2900 O     1   SOL  -0.8340
8621   HW1  17.4800  15.7200  41.8200 H     1   SOL   0.4170
8622   HW2  15.9700  15.6100  41.9200 H     1   SOL   0.4170
8623    OW  24.4800  36.5200  37.0300 O     1   SOL  -0.8340
8624   HW1  23.6800  36.9000  36.6600 H     1   SOL   0.4170
8625   HW2  24.1900  36.1300  37.8600 H     1   SOL   0.4170
8626    OW  21.4200   9.5400  31.0900 O     1   SOL  -0.8340
8627   HW1  20.7900   9.2100  30.4500 H     1   SOL   0.4170
8628   HW2  22.2700   9.2300  30.7700 H     1   SOL   0.4170
8629    OW   3.7900   2.1800  32.9300 O     1   SOL  -0.8340
8630   HW1   3.4400   3.0400  32.7400 H     1   SOL   0.4170
8631   HW2   3.7400   2.1100  33.8900 H     1   SOL   0.4170
8632    OW  36.0900  36.6100  19.2900 O     1   SOL  -0.8340
8633   HW1  36.0800  37.4000  19.8300 H     1   SOL   0.4170
8634   HW2  35.2100  36.5500  18.9300 H     1   SOL   0.4170
8635    OW  32.9800   8.0700  23.2100 O     1   SOL  -0.8340
8636   HW1  32.3400   7.5200  23.6600 H     1   SOL   0.4170
8637   HW2  32.4600   8.6000  22.6000 H     1   SOL   0.4170
8638    OW  20.0500  12.0600  28.2600 O     1   SOL  -0.8340
8639   HW1  19.5700  12.3500  29.0400 H     1   SOL   0.4170
8640   HW2  19.8400  11.1300  28.1800 H     1   SOL   0.4170
8641    OW  19.1000  41.2700  33.4100 O     1   SOL  -0.8340
8642   HW1  18.4700  41.4900  34.0900 H     1   SOL   0.4170
8643   HW2  18.6800  40.5800  32.9000 H     1   SOL   0.4170
8644    OW  14.8200  17.1500  31.9500 O     1   SOL  -0.8340
8645   HW1  15.3300  16.3400  31.8900 H     1   SOL   0.4170
8646   HW2  15.0500  17.5100  32.8100 H     1   SOL   0.4170
8647    OW  35.7500  40.7800  30.2600 O     1   SOL  -0.8340
8648   HW1  35.2800  41.2900  29.6100 H     1   SOL   0.4170
8649   HW2  35.3800  39.9000  30.2000 H     1   SOL   0.4170
8650    OW   5.5000  38.0400  44.0900 O     1   SOL  -0.8340
8651   HW1   4.6500  37.6100  44.0100 H     1   SOL   0.4170
8652   HW2   5.5000  38.7000  43.4000 H     1   SOL   0.4170
8653    OW  28.6900  14.2000  19.0200 O     1   SOL  -0.8340
8654   HW1  28.9100  14.8500  18.3600 H     1   SOL   0.4170
8655   HW2  27.8300  13.8700  18.7500 H     1   SOL   0.4170
8656    OW  12.9700   6.7100  21.5500 O     1   SOL  -0.8340
8657   HW1  12.8100   7.4300  20.9400 H     1   SOL   0.4170
8658   HW2  12.1300   6.5600  21.9800 H     1   SOL   0.4170
8659    OW  25.1400  12.6600  32.0300 O     1   SOL  -0.8340
8660   HW1  25.2700  12.8100  31.0900 H     1   SOL   0.4170
8661   HW2  24.8100  13.5000  32.3500 H     1   SOL   0.4170
8662    OW  19.5600   7.7000  38.1000 O     1   SOL  -0.8340
8663   HW1  19.8900   6.8200  37.9000 H     1   SOL   0.4170
8664   HW2  19.5700   7.7500  39.0600 H     1   SOL   0.4170
8665    OW  23.2100  41.4200  21.7400 O     1   SOL  -0.8340
8666   HW1  23.1000  41.8200  20.8800 H     1   SOL   0.4170
8667   HW2  23.9800  40.8600  21.6400 H     1   SOL   0.4170
8668    OW  24.2200   8.8100  37.2300 O     1   SOL  -0.8340
8669   HW1  23.8300   8.2100  36.6000 H     1   SOL   0.4170
8670   HW2  23.5100   9.4100  37.4700 H     1   SOL   0.4170
8671    OW  15.9500  41.7000  24.6300 O     1   SOL  -0.8340
8672   HW1  15.7300  41.6900  25.5600 H     1   SOL   0.4170
8673   HW2  16.2500  42.6000  24.4700 H     1   SOL   0.4170
8674    OW  39.3900  19.5100  16.6800 O     1   SOL  -0.8340
8675   HW1  38.9200  19.8600  15.9300 H     1   SOL   0.4170
8676   HW2  40.1200  20.1100  16.8200 H     1   SOL   0.4170
8677    OW  15.6900  12.0900  17.2200 O     1   SOL  -0.8340
8678   HW1  15.8300  11.9600  16.2900 H     1   SOL   0.4170
8679   HW2  15.1600  12.8800  17.2800 H     1   SOL   0.4170
8680    OW  11.8400  14.8100  29.2700 O     1   SOL  -0.8340
8681   HW1  12.3800  14.5000  28.5400 H     1   SOL   0.4170
8682   HW2  11.1200  14.1900  29.3300 H     1   SOL   0.4170
8683    OW  34.0600  42.4900  28.9500 O     1   SOL  -0.8340
8684   HW1  33.2100  42.2500  28.5900 H     1   SOL   0.4170
8685   HW2  34.4600  43.0500  28.2900 H     1   SOL   0.4170
8686    OW  24.8600  37.6800  28.9100 O     1   SOL  -0.8340
8687   HW1  24.5500  38.5800  28.8800 H     1   SOL   0.4170
8688   HW2  25.8000  37.7500  29.0700 H     1   SOL   0.4170
8689    OW  17.6300  42.5300  21.7800 O     1   SOL  -0.8340
8690   HW1  18.4700  42.2900  22.1600 H     1   SOL   0.4170
8691   HW2  17.8500  42.8900  20.9200 H     1   SOL   0.4170
8692    OW  14.8400   8.1600   6.7200 O     1   SOL  -0.8340
8693   HW1  14.6100   9.0400   7.0200 H     1   SOL   0.4170
8694   HW2  15.5100   8.3000   6.0600 H     1   SOL   0.4170
8695    OW  26.4200  39.8600  11.1400 O     1   SOL  -0.8340
8696   HW1  27.3200  39.5600  11.2900 H     1   SOL   0.4170
8697   HW2  25.9800  39.1100  10.7400 H     1   SOL   0.4170
8698    OW  19.3400  37.9300  33.6300 O     1   SOL  -0.8340
8699   HW1  18.8600  37.1700  33.9600 H     1   SOL   0.4170
8700   HW2  19.3700  38.5400  34.3700 H     1   SOL   0.4170
8701    OW   9.9800   3.9100  11.3800 O     1   SOL  -0.8340
8702   HW1   9.6300   3.2500  10.7800 H     1   SOL   0.4170
8703   HW2   9.3000   4.0000  12.0400 H     1   SOL   0.4170
8704    OW  31.4400  41.0200  12.8200 O     1   SOL  -0.8340
8705   HW1  31.6300  40.3300  13.4500 H     1   SOL   0.4170
8706   HW2  31.8200  41.8100  13.2100 H     1   SOL   0.4170
8707    OW  20.5100   8.6700  28.5700 O     1   SOL  -0.8340
8708   HW1  19.6900   8.5700  28.0900 H     1   SOL   0.4170
8709   HW2  21.1900   8.3700  27.9700 H     1   SOL   0.4170
8710    OW  14.9200  13.4900  21.2500 O     1   SOL  -0.8340
8711   HW1  14.2800  14.1900  21.0800 H     1   SOL   0.4170
8712   HW2  15.4700  13.4700  20.4700 H     1   SOL   0.4170
8713    OW  25.9300  39.7200  35.4000 O     1   SOL  -0.8340
8714   HW1  26.3100  39.7900  34.5200 H     1   SOL   0.4170
8715   HW2  25.5600  40.5900  35.5600 H     1   SOL   0.4170
8716    OW  13.9300  26.1600  35.4600 O     1   SOL  -0.8340
8717   HW1  14.7300  26.4000  34.9800 H     1   SOL   0.4170
8718   HW2  13.2200  26.5400  34.9400 H     1   SOL   0.4170
8719    OW   0.0100  13.8400  63.3800 O     1   SOL  -0.8340
8720   HW1  -0.1300  14.7800  63.2600 H     1   SOL   0.4170
8721   HW2   0.1000  13.7300  64.3300 H     1   SOL   0.4170
8722    OW  10.7700  17.5700  39.3600 O     1   SOL  -0.8340
8723   HW1  10.7800  17.0600  38.5400 H     1   SOL   0.4170
8724   HW2   9.9100  17.4200  39.7300 H     1   SOL   0.4170
8725    OW  31.5200  18.2800  33.7500 O     1   SOL  -0.8340
8726   HW1  31.6700  19.2000  33.9400 H     1   SOL   0.4170
8727   HW2  30.6000  18.1400  33.9800 H     1   SOL   0.4170
8728    OW  31.9400  20.0500  49.5500 O     1   SOL  -0.8340
8729   HW1  31.0800  19.7100  49.3100 H     1   SOL   0.4170
8730   HW2  32.0400  19.8400  50.4800 H     1   SOL   0.4170
8731    OW  32.3600  13.0600  70.8100 O     1   SOL  -0.8340
8732   HW1  32.3900  13.4700  71.6700 H     1   SOL   0.4170
8733   HW2  31.4200  12.9700  70.6100 H     1   SOL   0.4170
8734    OW  16.0000  21.3500  40.1000 O     1   SOL  -0.8340
8735   HW1  15.1500  21.7100  40.3400 H     1   SOL   0.4170
8736   HW2  16.4300  22.0600  39.6300 H     1   SOL   0.4170
8737    OW  30.5300  38.9500  33.1300 O     1   SOL  -0.8340
8738   HW1  29.8700  39.6100  32.9600 H     1   SOL   0.4170
8739   HW2  30.9400  39.2200  33.9500 H     1   SOL   0.4170
8740    OW  16.2600  12.0500  47.8500 O     1   SOL  -0.8340
8741   HW1  15.3400  11.7800  47.7800 H     1   SOL   0.4170
8742   HW2  16.2400  12.8800  48.3300 H     1   SOL   0.4170
8743    OW  38.4100  19.0900  67.7900 O     1   SOL  -0.8340
8744   HW1  38.0700  18.2100  67.9700 H     1   SOL   0.4170
8745   HW2  39.2900  18.9400  67.4400 H     1   SOL   0.4170
8746    OW   0.5900  12.4000  59.7800 O     1   SOL  -0.8340
8747   HW1  -0.1200  12.2000  60.3900 H     1   SOL   0.4170
8748   HW2   1.0300  13.1600  60.1700 H     1   SOL   0.4170
8749    OW  23.0300   1.3400  50.2500 O     1   SOL  -0.8340
8750   HW1  22.0800   1.2900  50.3500 H     1   SOL   0.4170
8751   HW2  23.3600   0.5600  50.6900 H     1   SOL   0.4170
8752    OW  13.2300  20.7400  34.1500 O     1   SOL  -0.8340
8753   HW1  12.7800  21.0000  34.9600 H     1   SOL   0.4170
8754   HW2  13.7700  20.0000  34.4000 H     1   SOL   0.4170
8755    OW  23.3700  15.4500  37.8300 O     1   SOL  -0.8340
8756   HW1  23.1800  14.5200  37.7300 H     1   SOL   0.4170
8757   HW2  23.0300  15.6700  38.7100 H     1   SOL   0.4170
8758    OW  17.6400  11.4900  54.5900 O     1   SOL  -0.8340
8759   HW1  17.8900  12.3300  54.9700 H     1   SOL   0.4170
8760   HW2  16.7300  11.3700  54.8500 H     1   SOL   0.4170
8761    OW  13.2700   4.2600  67.0300 O     1   SOL  -0.8340
8762   HW1  12.7800   3.4800  66.7600 H     1   SOL   0.4170
8763   HW2  14.0900   3.9100  67.3900 H     1   SOL   0.4170
8764    OW  15.1400   1.8200  45.9700 O     1   SOL  -0.8340
8765   HW1  14.9600   2.4700  46.6400 H     1   SOL   0.4170
8766   HW2  14.4500   1.9400  45.3200 H     1   SOL   0.4170
8767    OW  22.7200  31.8100  39.9600 O     1   SOL  -0.8340
8768   HW1  23.3600  31.7500  40.6700 H     1   SOL   0.4170
8769   HW2  22.3300  32.6800  40.0500 H     1   SOL   0.4170
8770    OW  16.8100  13.0800  44.1400 O     1   SOL  -0.8340
8771   HW1  17.7600  13.0500  44.2600 H     1   SOL   0.4170
8772   HW2  16.5600  13.9500  44.4400 H     1   SOL   0.4170
8773    OW  39.9800  24.9300  47.4300 O     1   SOL  -0.8340
8774   HW1  39.9800  24.4600  46.6000 H     1   SOL   0.4170
8775   HW2  39.0700  24.9200  47.7200 H     1   SOL   0.4170
8776    OW  32.0200  23.1500  24.9200 O     1   SOL  -0.8340
8777   HW1  31.0800  23.0200  24.7800 H     1   SOL   0.4170
8778   HW2  32.4000  22.2800  24.8200 H     1   SOL   0.4170
8779    OW  17.1300   9.5500  52.2000 O     1   SOL  -0.8340
8780   HW1  17.1600  10.0300  53.0400 H     1   SOL   0.4170
8781   HW2  17.9300   9.8100  51.7600 H     1   SOL   0.4170
8782    OW   3.6200  35.7700  36.1300 O     1   SOL  -0.8340
8783   HW1   3.3700  36.2400  36.9300 H     1   SOL   0.4170
8784   HW2   4.5600  35.6300  36.2100 H     1   SOL   0.4170
8785    OW   1.1900   3.8600  41.4900 O     1   SOL  -0.8340
8786   HW1   0.6200   4.5700  41.7900 H     1   SOL   0.4170
8787   HW2   1.6500   3.5700  42.2800 H     1   SOL   0.4170
8788    OW  33.6100   8.9900  55.4600 O     1   SOL  -0.8340
8789   HW1  33.0000   9.0500  54.7200 H     1   SOL   0.4170
8790   HW2  33.5700   8.0800  55.7300 H     1   SOL   0.4170
8791    OW  15.6800  14.1900  59.6700 O     1   SOL  -0.8340
8792   HW1  16.3500  13.6200  60.0500 H     1   SOL   0.4170
8793   HW2  15.0900  14.3800  60.4100 H     1   SOL   0.4170
8794    OW  39.0300   9.9000  48.5700 O     1   SOL  -0.8340
8795   HW1  39.4000   9.0800  48.2500 H     1   SOL   0.4170
8796   HW2  38.8100  10.4000  47.7900 H     1   SOL   0.4170
8797    OW  26.9200  33.6000  41.7000 O     1   SOL  -0.8340
8798   HW1  26.4900  33.0000  41.0900 H     1   SOL   0.4170
8799   HW2  27.0000  33.1000  42.5100 H     1   SOL   0.4170
8800    OW  26.2900  39.5900  57.2900 O     1   SOL  -0.8340
8801   HW1  26.8100  40.3600  57.0500 H     1   SOL   0.4170
8802   HW2  25.3900  39.8500  57.0800 H     1   SOL   0.4170
8803    OW  37.7200  16.9900  65.7000 O     1   SOL  -0.8340
8804   HW1  37.8900  17.8600  65.3600 H     1   SOL   0.4170
8805   HW2  38.5800  16.5700  65.7300 H     1   SOL   0.4170
8806    OW   9.8400   8.3400  40.8000 O     1   SOL  -0.8340
8807   HW1  10.2100   8.2200  41.6800 H     1   SOL   0.4170
8808   HW2   9.3900   9.1900  40.8500 H     1   SOL   0.4170
8809    OW  33.2200   6.4600  55.9200 O     1   SOL  -0.8340
8810   HW1  32.6800   6.2500  56.6800 H     1   SOL   0.4170
8811   HW2  33.9500   5.8400  55.9700 H     1   SOL   0.4170
8812    OW  34.5000   4.6500  39.8300 O     1   SOL  -0.8340
8813   HW1  33.9700   5.4400  39.7300 H     1   SOL   0.4170
8814   HW2  35.3700   4.8900  39.5000 H     1   SOL   0.4170
8815    OW  30.4400   0.9800  44.7300 O     1   SOL  -0.8340
8816   HW1  30.5800   1.9200  44.7500 H     1   SOL   0.4170
8817   HW2  30.0500   0.8100  43.8700 H     1   SOL   0.4170
8818    OW  27.1000   9.5000  51.9900 O     1   SOL  -0.8340
8819   HW1  28.0000   9.5900  52.3200 H     1   SOL   0.4170
8820   HW2  27.1800   8.9200  51.2400 H     1   SOL   0.4170
8821    OW  31.4200  35.5600  74.6200 O     1   SOL  -0.8340
8822   HW1  30.7900  34.8400  74.6600 H     1   SOL   0.4170
8823   HW2  31.2800  35.9500  73.7600 H     1   SOL   0.4170
8824    OW  26.6100  16.1600  31.9100 O     1   SOL  -0.8340
8825   HW1  26.3500  16.5600  31.0800 H     1   SOL   0.4170
8826   HW2  25.7900  16.0200  32.3800 H     1   SOL   0.4170
8827    OW  26.5300  36.5500  31.8000 O     1   SOL  -0.8340
8828   HW1  26.3200  36.4300  32.7300 H     1   SOL   0.4170
8829   HW2  26.6500  35.6600  31.4700 H     1   SOL   0.4170
8830    OW  25.8600  38.0300  43.2900 O     1   SOL  -0.8340
8831   HW1  26.1500  38.1700  42.3900 H     1   SOL   0.4170
8832   HW2  25.6700  37.0900  43.3300 H     1   SOL   0.4170
8833    OW  19.5800  17.8600  51.2200 O     1   SOL  -0.8340
8834   HW1  20.3400  17.6900  51.7800 H     1   SOL   0.4170
8835   HW2  19.5000  18.8100  51.2100 H     1   SOL   0.4170
8836    OW   5.7400  22.2000  56.2200 O     1   SOL  -0.8340
8837   HW1   5.6700  22.7500  55.4400 H     1   SOL   0.4170
8838   HW2   6.4300  22.6100  56.7400 H     1   SOL   0.4170
8839    OW  15.8800  27.6100  33.2800 O     1   SOL  -0.8340
8840   HW1  16.1400  28.2500  32.6100 H     1   SOL   0.4170
8841   HW2  15.5000  26.8800  32.7800 H     1   SOL   0.4170
8842    OW  27.9100  19.3400  24.2100 O     1   SOL  -0.8340
8843   HW1  28.0800  18.4700  23.8500 H     1   SOL   0.4170
8844   HW2  27.5100  19.8200  23.4800 H     1   SOL   0.4170
8845    OW  20.8900  12.9100  49.4500 O     1   SOL  -0.8340
8846   HW1  20.4700  13.7600  49.5900 H     1   SOL   0.4170
8847   HW2  21.0900  12.6000  50.3300 H     1   SOL   0.4170
8848    OW  18.5100   5.5300  34.9400 O     1   SOL  -0.8340
8849   HW1  18.8300   5.1700  35.7700 H     1   SOL   0.4170
8850   HW2  18.6900   6.4700  35.0100 H     1   SOL   0.4170
8851    OW  25.9400  37.6800  52.5600 O     1   SOL  -0.8340
8852   HW1  26.0000  37.4000  53.4700 H     1   SOL   0.4170
8853   HW2  26.5200  38.4500  52.5100 H     1   SOL   0.4170
8854    OW  26.6100   3.2400  34.0700 O     1   SOL  -0.8340
8855   HW1  27.1200   3.4800  33.2900 H     1   SOL   0.4170
8856   HW2  26.6500   4.0200  34.6200 H     1   SOL   0.4170
8857    OW  15.6400   4.7000  37.9100 O     1   SOL  -0.8340
8858   HW1  16.2000   5.1100  37.2500 H     1   SOL   0.4170
8859   HW2  16.2600   4.3500  38.5600 H     1   SOL   0.4170
8860    OW  23.9400  10.5000  47.4000 O     1   SOL  -0.8340
8861   HW1  24.1000   9.6200  47.7500 H     1   SOL   0.4170
8862   HW2  23.1300  10.4200  46.9000 H     1   SOL   0.4170
8863    OW  22.4200  18.3600  47.9900 O     1   SOL  -0.8340
8864   HW1  21.6800  18.9600  48.0500 H     1   SOL   0.4170
8865   HW2  22.1500  17.5800  48.4700 H     1   SOL   0.4170
8866    OW  15.4800  15.2300  45.5400 O     1   SOL  -0.8340
8867   HW1  14.7300  15.3600  44.9600 H     1   SOL   0.4170
8868   HW2  15.0800  15.0200  46.3900 H     1   SOL   0.4170
8869    OW  30.0800  12.2800  31.7500 O     1   SOL  -0.8340
8870   HW1  30.9700  12.5300  32.0100 H     1   SOL   0.4170
8871   HW2  29.5700  13.0800  31.8500 H     1   SOL   0.4170
8872    OW  22.0200  22.9700  41.6500 O     1   SOL  -0.8340
8873   HW1  22.2300  22.8300  40.7300 H     1   SOL   0.4170
8874   HW2  22.7000  22.4900  42.1200 H     1   SOL   0.4170
8875    OW  32.0600   3.9700  61.7600 O     1   SOL  -0.8340
8876   HW1  31.4500   3.6200  62.4200 H     1   SOL   0.4170
8877   HW2  31.7000   3.6800  60.9200 H     1   SOL   0.4170
8878    OW  31.3100   3.9800  43.4000 O     1   SOL  -0.8340
8879   HW1  31.6000   3.9600  42.4800 H     1   SOL   0.4170
8880   HW2  30.7000   4.7200  43.4300 H     1   SOL   0.4170
8881    OW  17.3100  34.9700  33.4100 O     1   SOL  -0.8340
8882   HW1  17.7100  35.3900  34.1700 H     1   SOL   0.4170
8883   HW2  17.1800  34.0600  33.6700 H     1   SOL   0.4170
8884    OW  20.6100  34.9700  38.1500 O     1   SOL  -0.8340
8885   HW1  21.5200  35.1600  37.9300 H     1   SOL   0.4170
8886   HW2  20.1500  35.7800  38.0000 H     1   SOL   0.4170
8887    OW  26.5700  36.6400  22.4300 O     1   SOL  -0.8340
8888   HW1  25.9600  36.6800  23.1600 H     1   SOL   0.4170
8889   HW2  26.0600  36.2900  21.7000 H     1   SOL   0.4170
8890    OW  34.3500  10.9400  61.2300 O     1   SOL  -0.8340
8891   HW1  34.1600  11.0700  60.3000 H     1   SOL   0.4170
8892   HW2  35.2500  10.6000  61.2400 H     1   SOL   0.4170
8893    OW  30.4500  12.5800  62.3700 O     1   SOL  -0.8340
8894   HW1  29.8500  12.9600  61.7200 H     1   SOL   0.4170
8895   HW2  30.7400  11.7700  61.9700 H     1   SOL   0.4170
8896    OW  13.4800  10.3800  53.1800 O     1   SOL  -0.8340
8897   HW1  12.8000   9.9400  53.6900 H     1   SOL   0.4170
8898   HW2  14.0700  10.7500  53.8300 H     1   SOL   0.4170
8899    OW  29.3200  23.7700  32.3000 O     1   SOL  -0.8340
8900   HW1  30.0500  24.2000  31.8600 H     1   SOL   0.4170
8901   HW2  29.2100  22.9400  31.8500 H     1   SOL   0.4170
8902    OW   1.5300  41.1700  37.2500 O     1   SOL  -0.8340
8903   HW1   0.8300  41.2500  37.9000 H     1   SOL   0.4170
8904   HW2   2.1600  41.8600  37.4900 H     1   SOL   0.4170
8905    OW  22.6200  33.6400  59.3000 O     1   SOL  -0.8340
8906   HW1  22.5300  32.7600  58.9300 H     1   SOL   0.4170
8907   HW2  23.1600  33.5100  60.0800 H     1   SOL   0.4170
8908    OW   9.7500  17.0000  36.7300 O     1   SOL  -0.8340
8909   HW1  10.0400  17.4100  35.9200 H     1   SOL   0.4170
8910   HW2   9.4800  16.1200  36.4700 H     1   SOL   0.4170
8911    OW  11.5500   1.3500  43.8800 O     1   SOL  -0.8340
8912   HW1  11.1900   1.1300  44.7500 H     1   SOL   0.4170
8913   HW2  11.4300   0.5500  43.3700 H     1   SOL   0.4170
8914    OW   5.5900  13.0900  52.7600 O     1   SOL  -0.8340
8915   HW1   5.8300  12.9100  53.6700 H     1   SOL   0.4170
8916   HW2   4.7200  12.7100  52.6600 H     1   SOL   0.4170
8917    OW  25.4500  36.9200  57.8900 O     1   SOL  -0.8340
8918   HW1  25.8600  37.7500  57.6500 H     1   SOL   0.4170
8919   HW2  24.5100  37.1000  57.8600 H     1   SOL   0.4170
8920    OW  18.9800  15.8600  43.0500 O     1   SOL  -0.8340
8921   HW1  19.4600  15.2000  43.5500 H     1   SOL   0.4170
8922   HW2  19.6000  16.1700  42.3900 H     1   SOL   0.4170
8923    OW  40.2000   3.3900  40.3000 O     1   SOL  -0.8340
8924   HW1  40.2500   2.4400  40.2200 H     1   SOL   0.4170
8925   HW2  40.2700   3.5500  41.2400 H     1   SOL   0.4170
8926    OW  14.6500  18.4300  45.0400 O     1   SOL  -0.8340
8927   HW1  14.4000  18.6200  45.9400 H     1   SOL   0.4170
8928   HW2  14.0000  17.8100  44.7300 H     1   SOL   0.4170
8929    OW  20.9500   7.4000  47.9200 O     1   SOL  -0.8340
8930   HW1  21.0100   6.9500  47.0800 H     1   SOL   0.4170
8931   HW2  21.0000   8.3300  47.6900 H     1   SOL   0.4170
8932    OW   0.2300  12.6600  49.3000 O     1   SOL  -0.8340
8933   HW1   0.2900  12.9800  50.2000 H     1   SOL   0.4170
8934   HW2   0.1500  13.4600  48.7700 H     1   SOL   0.4170
8935    OW  23.5500  22.5700  69.8100 O     1   SOL  -0.8340
8936   HW1  22.6100  22.7600  69.8000 H     1   SOL   0.4170
8937   HW2  23.9600  23.3900  69.5800 H     1   SOL   0.4170
8938    OW  24.3500  30.4100  41.9100 O     1   SOL  -0.8340
8939   HW1  24.3400  29.4600  41.7800 H     1   SOL   0.4170
8940   HW2  25.1800  30.6900  41.5300 H     1   SOL   0.4170
8941    OW  27.6400  43.1000  63.7600 O     1   SOL  -0.8340
8942   HW1  26.7500  43.1000  64.1200 H     1   SOL   0.4170
8943   HW2  27.8500  44.0300  63.6500 H     1   SOL   0.4170
8944    OW   9.8900  12.4400  28.6600 O     1   SOL  -0.8340
8945   HW1   8.9600  12.5800  28.5000 H     1   SOL   0.4170
8946   HW2  10.1200  11.7100  28.0800 H     1   SOL   0.4170
8947    OW  29.6600   9.7200  52.8700 O     1   SOL  -0.8340
8948   HW1  30.2500   9.0000  53.0900 H     1   SOL   0.4170
8949   HW2  29.4300  10.1000  53.7200 H     1   SOL   0.4170
8950    OW  18.3700   5.0600  45.8600 O     1   SOL  -0.8340
8951   HW1  18.0600   4.8200  46.7300 H     1   SOL   0.4170
8952   HW2  18.0500   4.3700  45.2900 H     1   SOL   0.4170
8953    OW  10.3900  18.8600  55.7300 O     1   SOL  -0.8340
8954   HW1  10.8200  19.2900  54.9800 H     1   SOL   0.4170
8955   HW2   9.4600  19.0300  55.6000 H     1   SOL   0.4170
8956    OW  15.5800   5.0800  21.6000 O     1   SOL  -0.8340
8957   HW1  15.9500   5.3600  20.7600 H     1   SOL   0.4170
8958   HW2  14.8400   5.6800  21.7500 H     1   SOL   0.4170
8959    OW  34.8000  11.4500  49.3500 O     1   SOL  -0.8340
8960   HW1  35.4900  11.9000  49.8400 H     1   SOL   0.4170
8961   HW2  35.2100  11.2100  48.5200 H     1   SOL   0.4170
8962    OW  41.4500   7.1300  49.5800 O     1   SOL  -0.8340
8963   HW1  41.5300   8.0500  49.8400 H     1   SOL   0.4170
8964   HW2  42.3400   6.8900  49.3000 H     1   SOL   0.4170
8965    OW  16.7800   1.1400  54.0100 O     1   SOL  -0.8340
8966   HW1  17.6200   1.0400  54.4500 H     1   SOL   0.4170
8967   HW2  16.1400   0.8100  54.6400 H     1   SOL   0.4170
8968    OW  38.9900   5.3500  48.4800 O     1   SOL  -0.8340
8969   HW1  39.8300   5.6100  48.8700 H     1   SOL   0.4170
8970   HW2  38.9300   4.4100  48.6800 H     1   SOL   0.4170
8971    OW  16.9900   3.2900  44.0400 O     1   SOL  -0.8340
8972   HW1  16.4800   4.0400  43.7300 H     1   SOL   0.4170
8973   HW2  16.3400   2.7300  44.4700 H     1   SOL   0.4170
8974    OW  27.6400   5.8000  60.0300 O     1   SOL  -0.8340
8975   HW1  28.3200   5.7600  59.3500 H     1   SOL   0.4170
8976   HW2  28.1100   6.0300  60.8300 H     1   SOL   0.4170
8977    OW   1.2600  15.3600  48.7300 O     1   SOL  -0.8340
8978   HW1   1.8300  15.5700  49.4600 H     1   SOL   0.4170
8979   HW2   1.2600  16.1500  48.1900 H     1   SOL   0.4170
8980    OW  12.3000  41.0200  54.8900 O     1   SOL  -0.8340
8981   HW1  11.6700  41.5700  55.3600 H     1   SOL   0.4170
8982   HW2  11.9000  40.8800  54.0300 H     1   SOL   0.4170
8983    OW  24.3200   9.7500  52.2500 O     1   SOL  -0.8340
8984   HW1  25.1900   9.3400  52.2200 H     1   SOL   0.4170
8985   HW2  23.8100   9.2800  51.6000 H     1   SOL   0.4170
8986    OW  41.9200   0.2600  47.6400 O     1   SOL  -0.8340
8987   HW1  41.1600   0.1600  47.0600 H     1   SOL   0.4170
8988   HW2  42.0800  -0.6200  47.9700 H     1   SOL   0.4170
8989    OW   5.4900  21.6300  59.3900 O     1   SOL  -0.8340
8990   HW1   6.0300  22.3500  59.0500 H     1   SOL   0.4170
8991   HW2   5.6400  20.9100  58.7900 H     1   SOL   0.4170
8992    OW  38.2800   7.7500  54.9600 O     1   SOL  -0.8340
8993   HW1  38.2200   8.6800  55.1700 H     1   SOL   0.4170
8994   HW2  38.2200   7.7100  54.0000 H     1   SOL   0.4170
8995    OW  12.2300  15.7200  58.2300 O     1   SOL  -0.8340
8996   HW1  11.3100  15.4600  58.2000 H     1   SOL   0.4170
8997   HW2  12.2300  16.5800  58.6500 H     1   SOL   0.4170
8998    OW  27.9400  39.9700  53.0200 O     1   SOL  -0.8340
8999   HW1  28.4700  40.4900  52.4100 H     1   SOL   0.4170
9000   HW2  28.4100  40.0300  53.8500 H     1   SOL   0.4170
9001    OW  30.6200   3.7800  46.4700 O     1   SOL  -0.8340
9002   HW1  31.1200   3.8500  45.6600 H     1   SOL   0.4170
9003   HW2  31.0200   3.0500  46.9300 H     1   SOL   0.4170
9004    OW  16.5400  24.0500  42.1200 O     1   SOL  -0.8340
9005   HW1  16.5100  23.7900  43.0400 H     1   SOL   0.4170
9006   HW2  17.1400  23.4200  41.7200 H     1   SOL   0.4170
9007    OW  22.5500  13.7500  47.5900 O     1   SOL  -0.8340
9008   HW1  21.9600  13.2300  48.1400 H     1   SOL   0.4170
9009   HW2  23.1300  13.1100  47.1800 H     1   SOL   0.4170
9010    OW   2.5800  15.0400  63.1900 O     1   SOL  -0.8340
9011   HW1   1.7200  14.6700  62.9700 H     1   SOL   0.4170
9012   HW2   3.1800  14.6100  62.5800 H     1   SOL   0.4170
9013    OW  17.2200  19.8600  61.1900 O     1   SOL  -0.8340
9014   HW1  17.0100  20.0400  60.2700 H     1   SOL   0.4170
9015   HW2  16.3700  19.7500  61.6100 H     1   SOL   0.4170
9016    OW  26.5700  29.4500  44.7400 O     1   SOL  -0.8340
9017   HW1  25.8200  29.1100  45.2400 H     1   SOL   0.4170
9018   HW2  27.2000  29.7100  45.4100 H     1   SOL   0.4170
9019    OW  34.0900  11.4600  52.0700 O     1   SOL  -0.8340
9020   HW1  34.6900  10.8500  52.5000 H     1   SOL   0.4170
9021   HW2  34.4400  11.5500  51.1800 H     1   SOL   0.4170
9022    OW  16.4700  10.4500  45.0700 O     1   SOL  -0.8340
9023   HW1  16.7400  10.3700  45.9800 H     1   SOL   0.4170
9024   HW2  16.6600  11.3600  44.8300 H     1   SOL   0.4170
9025    OW  13.4600  10.9400  44.7300 O     1   SOL  -0.8340
9026   HW1  14.3000  10.4900  44.6100 H     1   SOL   0.4170
9027   HW2  13.1600  11.1300  43.8500 H     1   SOL   0.4170
9028    OW  26.6400   7.2800  40.4600 O     1   SOL  -0.8340
9029   HW1  27.2900   7.5900  41.0900 H     1   SOL   0.4170
9030   HW2  27.1400   7.0700  39.6700 H     1   SOL   0.4170
9031    OW   4.9100  25.8400  49.0500 O     1   SOL  -0.8340
9032   HW1   4.1000  26.0900  49.4900 H     1   SOL   0.4170
9033   HW2   4.7500  26.0300  48.1300 H     1   SOL   0.4170
9034    OW  22.0600   7.7900  42.1900 O     1   SOL  -0.8340
9035   HW1  21.7000   6.9000  42.1100 H     1   SOL   0.4170
9036   HW2  22.6800   7.8600  41.4700 H     1   SOL   0.4170
9037    OW   4.6400  12.9100  59.0700 O     1   SOL  -0.8340
9038   HW1   5.5600  12.9000  58.8100 H     1   SOL   0.4170
9039   HW2   4.6000  12.4100  59.8800 H     1   SOL   0.4170
9040    OW  24.7800   3.3200  49.9800 O     1   SOL  -0.8340
9041   HW1  24.3100   3.8400  49.3300 H     1   SOL   0.4170
9042   HW2  24.2300   2.5400  50.1000 H     1   SOL   0.4170
9043    OW  30.2700  11.4600  57.7200 O     1   SOL  -0.8340
9044   HW1  30.2300  10.5300  57.9700 H     1   SOL   0.4170
9045   HW2  29.9400  11.4700  56.8200 H     1   SOL   0.4170
9046    OW  10.0100   7.7200  25.6800 O     1   SOL  -0.8340
9047   HW1  10.2400   7.7900  26.6000 H     1   SOL   0.4170
9048   HW2   9.3400   8.3900  25.5400 H     1   SOL   0.4170
9049    OW  22.5700   4.8500  43.3400 O     1   SOL  -0.8340
9050   HW1  21.8800   4.6000  42.7300 H     1   SOL   0.4170
9051   HW2  23.2900   5.1500  42.7800 H     1   SOL   0.4170
9052    OW  16.2600  21.1000  45.8300 O     1   SOL  -0.8340
9053   HW1  17.0600  20.5800  45.7200 H     1   SOL   0.4170
9054   HW2  15.5500  20.4900  45.6500 H     1   SOL   0.4170
9055    OW  18.7100  25.8400  44.0800 O     1   SOL  -0.8340
9056   HW1  19.2100  25.0600  43.8600 H     1   SOL   0.4170
9057   HW2  17.7900  25.5900  43.9300 H     1   SOL   0.4170
9058    OW   4.7300   4.3500  48.8700 O     1   SOL  -0.8340
9059   HW1   5.5200   3.8100  48.8700 H     1   SOL   0.4170
9060   HW2   4.7600   4.8100  48.0300 H     1   SOL   0.4170
9061    OW  30.1600   6.0900  33.5500 O     1   SOL  -0.8340
9062   HW1  29.3900   6.5600  33.2200 H     1   SOL   0.4170
9063   HW2  30.8300   6.7700  33.6500 H     1   SOL   0.4170
9064    OW   5.8800   6.3400  43.7900 O     1   SOL  -0.8340
9065   HW1   6.6200   5.7500  43.6700 H     1   SOL   0.4170
9066   HW2   6.2700   7.1600  44.0900 H     1   SOL   0.4170
9067    OW  39.6500  38.0000  48.9800 O     1   SOL  -0.8340
9068   HW1  38.7900  37.6300  49.1700 H     1   SOL   0.4170
9069   HW2  39.8400  37.7200  48.0800 H     1   SOL   0.4170
9070    OW  26.7300  15.2800  51.6900 O     1   SOL  -0.8340
9071   HW1  27.3200  15.4400  52.4300 H     1   SOL   0.4170
9072   HW2  26.9400  14.3900  51.4100 H     1   SOL   0.4170
9073    OW  26.1200  17.3500  56.6700 O     1   SOL  -0.8340
9074   HW1  26.8300  17.2300  57.3000 H     1   SOL   0.4170
9075   HW2  26.0500  16.5100  56.2200 H     1   SOL   0.4170
9076    OW  26.0500  38.7000  37.8600 O     1   SOL  -0.8340
9077   HW1  26.3000  39.0100  36.9900 H     1   SOL   0.4170
9078   HW2  25.5800  37.8900  37.7000 H     1   SOL   0.4170
9079    OW  25.8700  16.2400  27.2500 O     1   SOL  -0.8340
9080   HW1  24.9900  15.9900  26.9700 H     1   SOL   0.4170
9081   HW2  26.0100  17.1100  26.8800 H     1   SOL   0.4170
9082    OW  25.4900  12.8800  42.0800 O     1   SOL  -0.8340
9083   HW1  25.8300  12.0800  41.6800 H     1   SOL   0.4170
9084   HW2  24.9600  12.5800  42.8200 H     1   SOL   0.4170
9085    OW  28.9500  31.3400  46.4200 O     1   SOL  -0.8340
9086   HW1  29.1400  30.7700  47.1700 H     1   SOL   0.4170
9087   HW2  28.9400  32.2200  46.8000 H     1   SOL   0.4170
9088    OW  15.9000  14.5100  38.6800 O     1   SOL  -0.8340
9089   HW1  16.7900  14.7400  38.9500 H     1   SOL   0.4170
9090   HW2  15.3400  15.1700  39.0800 H     1   SOL   0.4170
9091    OW  16.4000  18.6100  42.8600 O     1   SOL  -0.8340
9092   HW1  16.3500  17.7100  43.1700 H     1   SOL   0.4170
9093   HW2  15.7300  19.0700  43.3600 H     1   SOL   0.4170
9094    OW  25.6900  33.0000  48.9000 O     1   SOL  -0.8340
9095   HW1  25.0900  33.7200  49.1200 H     1   SOL   0.4170
9096   HW2  25.6100  32.3900  49.6300 H     1   SOL   0.4170
9097    OW   9.3600  28.0200  34.0100 O     1   SOL  -0.8340
9098   HW1   9.0600  27.5100  34.7600 H     1   SOL   0.4170
9099   HW2   8.6900  28.7000  33.9000 H     1   SOL   0.4170
9100    OW  18.9000  35.8600  55.6000 O     1   SOL  -0.8340
9101   HW1  18.6000  36.6000  56.1400 H     1   SOL   0.4170
9102   HW2  18.1400  35.6400  55.0600 H     1   SOL   0.4170
9103    OW  11.7500  12.0100  51.5100 O     1   SOL  -0.8340
9104   HW1  10.9900  11.4800  51.2800 H     1   SOL   0.4170
9105   HW2  12.1300  11.5700  52.2700 H     1   SOL   0.4170
9106    OW  26.3300  22.6800  34.0100 O     1   SOL  -0.8340
9107   HW1  27.1500  22.2000  34.1600 H     1   SOL   0.4170
9108   HW2  26.1400  23.0700  34.8600 H     1   SOL   0.4170
9109    OW  22.2100  16.3000  67.7100 O     1   SOL  -0.8340
9110   HW1  21.3700  16.6700  67.9900 H     1   SOL   0.4170
9111   HW2  22.6000  16.9800  67.1700 H     1   SOL   0.4170
9112    OW  22.4000  22.3600  27.5600 O     1   SOL  -0.8340
9113   HW1  21.6600  22.4000  26.9500 H     1   SOL   0.4170
9114   HW2  22.6300  23.2700  27.7200 H     1   SOL   0.4170
9115    OW  39.1400  43.1300  46.8300 O     1   SOL  -0.8340
9116   HW1  39.0100  42.3500  46.3000 H     1   SOL   0.4170
9117   HW2  38.9300  42.8600  47.7200 H     1   SOL   0.4170
9118    OW  21.5400   3.3200  52.9100 O     1   SOL  -0.8340
9119   HW1  21.3800   2.5700  52.3400 H     1   SOL   0.4170
9120   HW2  21.1300   4.0600  52.4600 H     1   SOL   0.4170
9121    OW   4.7200   5.3300  37.8100 O     1   SOL  -0.8340
9122   HW1   4.2100   4.7400  37.2500 H     1   SOL   0.4170
9123   HW2   4.2800   5.2900  38.6600 H     1   SOL   0.4170
9124    OW  14.1500  37.6500  21.3000 O     1   SOL  -0.8340
9125   HW1  14.8200  37.5400  21.9800 H     1   SOL   0.4170
9126   HW2  13.4400  37.0800  21.5800 H     1   SOL   0.4170
9127    OW  13.0000  16.5900  34.4100 O     1   SOL  -0.8340
9128   HW1  13.4000  15.8600  34.8900 H     1   SOL   0.4170
9129   HW2  12.8600  16.2400  33.5300 H     1   SOL   0.4170
9130    OW  21.0300  34.9300  51.5600 O     1   SOL  -0.8340
9131   HW1  21.2200  35.8300  51.8400 H     1   SOL   0.4170
9132   HW2  20.3200  35.0200  50.9300 H     1   SOL   0.4170
9133    OW  36.2400  28.3800  52.0600 O     1   SOL  -0.8340
9134   HW1  36.8400  28.4400  52.8000 H     1   SOL   0.4170
9135   HW2  35.7700  29.2100  52.0600 H     1   SOL   0.4170
9136    OW   2.6000  11.1500  62.6800 O     1   SOL  -0.8340
9137   HW1   1.9200  10.5600  62.3700 H     1   SOL   0.4170
9138   HW2   2.1600  11.7500  63.2800 H     1   SOL   0.4170
9139    OW  14.6200  14.0500  28.5300 O     1   SOL  -0.8340
9140   HW1  15.5300  13.8100  28.3600 H     1   SOL   0.4170
9141   HW2  14.6700  14.8500  29.0500 H     1   SOL   0.4170
9142    OW   7.2400   9.8600  29.8700 O     1   SOL  -0.8340
9143   HW1   6.4300   9.4600  30.2000 H     1   SOL   0.4170
9144   HW2   7.0100  10.7800  29.7400 H     1   SOL   0.4170
9145    OW   9.4700  41.6500  37.1700 O     1   SOL  -0.8340
9146   HW1   9.5300  42.3700  36.5300 H     1   SOL   0.4170
9147   HW2  10.3800  41.4700  37.4200 H     1   SOL   0.4170
9148    OW  34.8600   9.9200  57.6200 O     1   SOL  -0.8340
9149   HW1  34.4700   9.6400  56.8000 H     1   SOL   0.4170
9150   HW2  35.6300   9.3600  57.7200 H     1   SOL   0.4170
9151    OW  23.8900  36.5700  63.6700 O     1   SOL  -0.8340
9152   HW1  23.5500  36.5300  62.7800 H     1   SOL   0.4170
9153   HW2  23.1200  36.7200  64.2200 H     1   SOL   0.4170
9154    OW  20.4800  11.5300  35.3000 O     1   SOL  -0.8340
9155   HW1  20.4700  12.4200  34.9300 H     1   SOL   0.4170
9156   HW2  19.8800  11.5700  36.0400 H     1   SOL   0.4170
9157    OW  39.4200  27.2200  50.6100 O     1   SOL  -0.8340
9158   HW1  38.9500  27.8600  50.0700 H     1   SOL   0.4170
9159   HW2  38.7600  26.5700  50.8300 H     1   SOL   0.4170
9160    OW  11.6200   5.7200  44.5500 O     1   SOL  -0.8340
9161   HW1  11.3400   5.1200  43.8600 H     1   SOL   0.4170
9162   HW2  11.8100   5.1700  45.3000 H     1   SOL   0.4170
9163    OW  23.6200  37.9400  21.2300 O     1   SOL  -0.8340
9164   HW1  23.2600  37.2000  21.7200 H     1   SOL   0.4170
9165   HW2  24.2100  38.3800  21.8500 H     1   SOL   0.4170
9166    OW   9.9900  10.8300  37.4300 O     1   SOL  -0.8340
9167   HW1  10.9200  11.0300  37.2900 H     1   SOL   0.4170
9168   HW2   9.9700   9.8800  37.5400 H     1   SOL   0.4170
9169    OW  16.2500   8.6400  70.0200 O     1   SOL  -0.8340
9170   HW1  15.5700   9.2700  70.2400 H     1   SOL   0.4170
9171   HW2  17.0700   9.0700  70.2800 H     1   SOL   0.4170
9172    OW  13.1700  10.4000  49.0200 O     1   SOL  -0.8340
9173   HW1  12.5600  10.9400  49.5200 H     1   SOL   0.4170
9174   HW2  13.8000  10.1000  49.6700 H     1   SOL   0.4170
9175    OW  11.3200  31.9100  33.0600 O     1   SOL  -0.8340
9176   HW1  11.6700  31.5600  33.8900 H     1   SOL   0.4170
9177   HW2  12.0300  32.4600  32.7200 H     1   SOL   0.4170
9178    OW  30.5600  40.9300  55.1800 O     1   SOL  -0.8340
9179   HW1  31.3200  40.6300  55.6900 H     1   SOL   0.4170
9180   HW2  30.8600  40.9300  54.2800 H     1   SOL   0.4170
9181    OW  17.2200  41.1000  35.1500 O     1   SOL  -0.8340
9182   HW1  16.8900  40.2200  34.9300 H     1   SOL   0.4170
9183   HW2  17.0200  41.2100  36.0800 H     1   SOL   0.4170
9184    OW  22.1900   9.5400  56.0200 O     1   SOL  -0.8340
9185   HW1  22.4600   8.7500  56.4900 H     1   SOL   0.4170
9186   HW2  21.3200   9.3300  55.6800 H     1   SOL   0.4170
9187    OW   1.3600  10.3400  48.4200 O     1   SOL  -0.8340
9188   HW1   1.5800  10.9800  49.1000 H     1   SOL   0.4170
9189   HW2   0.4100  10.2100  48.5100 H     1   SOL   0.4170
9190    OW  28.8700   2.6600  57.7200 O     1   SOL  -0.8340
9191   HW1  29.2100   1.8200  57.4300 H     1   SOL   0.4170
9192   HW2  27.9400   2.6400  57.5000 H     1   SOL   0.4170
9193    OW  27.2200   1.0800  45.0400 O     1   SOL  -0.8340
9194   HW1  27.1600   0.5600  45.8400 H     1   SOL   0.4170
9195   HW2  28.0800   1.5000  45.0900 H     1   SOL   0.4170
9196    OW  18.2700  37.7500  57.8200 O     1   SOL  -0.8340
9197   HW1  18.1600  37.9100  58.7600 H     1   SOL   0.4170
9198   HW2  19.2200  37.6300  57.7200 H     1   SOL   0.4170
9199    OW  31.7200   1.0100  41.7100 O     1   SOL  -0.8340
9200   HW1  31.9100   1.6700  42.3700 H     1   SOL   0.4170
9201   HW2  32.3500   1.1800  41.0100 H     1   SOL   0.4170
9202    OW  28.6400  29.9200  49.0100 O     1   SOL  -0.8340
9203   HW1  27.9500  29.3400  48.6700 H     1   SOL   0.4170
9204   HW2  28.1700  30.6500  49.4100 H     1   SOL   0.4170
9205    OW   9.3200  25.3500  20.7400 O     1   SOL  -0.8340
9206   HW1  10.0200  24.9700  20.2100 H     1   SOL   0.4170
9207   HW2   9.4700  26.3000  20.6800 H     1   SOL   0.4170
9208    OW   7.0800  38.9600  40.1700 O     1   SOL  -0.8340
9209   HW1   7.5400  39.1200  39.3500 H     1   SOL   0.4170
9210   HW2   7.6200  39.3700  40.8400 H     1   SOL   0.4170
9211    OW  27.9300  34.7700  63.9200 O     1   SOL  -0.8340
9212   HW1  27.2000  34.1600  63.7800 H     1   SOL   0.4170
9213   HW2  28.1200  35.1100  63.0500 H     1   SOL   0.4170
9214    OW  31.1100  40.8900  72.5000 O     1   SOL  -0.8340
9215   HW1  30.2400  40.5300  72.3200 H     1   SOL   0.4170
9216   HW2  31.6700  40.5300  71.8200 H     1   SOL   0.4170
9217    OW  34.7800   4.0000  59.1100 O     1   SOL  -0.8340
9218   HW1  34.8100   3.2200  58.5500 H     1   SOL   0.4170
9219   HW2  34.7800   3.6700  60.0000 H     1   SOL   0.4170
9220    OW  14.0600   3.2400  60.6900 O     1   SOL  -0.8340
9221   HW1  13.1900   2.8500  60.6700 H     1   SOL   0.4170
9222   HW2  14.4300   2.9500  61.5300 H     1   SOL   0.4170
9223    OW  23.6100  19.7200  55.0300 O     1   SOL  -0.8340
9224   HW1  23.8900  19.7600  54.1200 H     1   SOL   0.4170
9225   HW2  22.7800  20.1800  55.0500 H     1   SOL   0.4170
9226    OW  40.7200  14.4200  75.4700 O     1   SOL  -0.8340
9227   HW1  41.1800  13.6000  75.3000 H     1   SOL   0.4170
9228   HW2  39.8100  14.2400  75.2200 H     1   SOL   0.4170
9229    OW  32.2200   5.4900  73.8300 O     1   SOL  -0.8340
9230   HW1  31.4500   6.0500  73.9700 H     1   SOL   0.4170
9231   HW2  32.8500   6.0600  73.3900 H     1   SOL   0.4170
9232    OW  24.5300  16.9400  64.1200 O     1   SOL  -0.8340
9233   HW1  24.0300  16.1400  64.0100 H     1   SOL   0.4170
9234   HW2  23.9700  17.6300  63.7800 H     1   SOL   0.4170
9235    OW  43.0900  34.0900  60.5400 O     1   SOL  -0.8340
9236   HW1  43.9200  33.7600  60.2100 H     1   SOL   0.4170
9237   HW2  42.7100  34.5500  59.7900 H     1   SOL   0.4170
9238    OW  15.5800  17.9600  64.2000 O     1   SOL  -0.8340
9239   HW1  16.4600  17.6100  64.0200 H     1   SOL   0.4170
9240   HW2  15.4400  18.6200  63.5200 H     1   SOL   0.4170
9241    OW   3.3900   7.8200  74.7700 O     1   SOL  -0.8340
9242   HW1   3.5700   6.9900  74.3400 H     1   SOL   0.4170
9243   HW2   3.6400   8.4800  74.1300 H     1   SOL   0.4170
9244    OW   0.7800   0.5100  72.5900 O     1   SOL  -0.8340
9245   HW1   0.9400   1.4300  72.3700 H     1   SOL   0.4170
9246   HW2   0.0400   0.2600  72.0400 H     1   SOL   0.4170
9247    OW   7.9900   7.9500  65.4900 O     1   SOL  -0.8340
9248   HW1   7.6100   8.2400  64.6700 H     1   SOL   0.4170
9249   HW2   7.4700   7.1800  65.7400 H     1   SOL   0.4170
9250    OW  18.0100  39.6100  52.2200 O     1   SOL  -0.8340
9251   HW1  18.2500  40.2900  51.5800 H     1   SOL   0.4170
9252   HW2  17.3200  40.0200  52.7500 H     1   SOL   0.4170
9253    OW  32.1300  19.5200  76.7300 O     1   SOL  -0.8340
9254   HW1  32.8000  20.1600  76.9800 H     1   SOL   0.4170
9255   HW2  32.5900  18.8900  76.1700 H     1   SOL   0.4170
9256    OW  22.2400   4.5500  66.1700 O     1   SOL  -0.8340
9257   HW1  21.4800   4.6700  65.6000 H     1   SOL   0.4170
9258   HW2  21.9600   3.8800  66.8000 H     1   SOL   0.4170
9259    OW   7.1000   0.7700  71.4000 O     1   SOL  -0.8340
9260   HW1   6.6900   0.0200  70.9700 H     1   SOL   0.4170
9261   HW2   7.2500   1.4000  70.7000 H     1   SOL   0.4170
9262    OW  31.1200  29.2400  67.6000 O     1   SOL  -0.8340
9263   HW1  31.6300  28.4600  67.8400 H     1   SOL   0.4170
9264   HW2  30.2200  29.0200  67.8200 H     1   SOL   0.4170
9265    OW  31.6100   8.0700  53.9400 O     1   SOL  -0.8340
9266   HW1  31.8600   7.2800  54.4300 H     1   SOL   0.4170
9267   HW2  32.1600   8.0500  53.1600 H     1   SOL   0.4170
9268    OW  38.7500   4.5000  76.8900 O     1   SOL  -0.8340
9269   HW1  38.3600   5.3000  77.2500 H     1   SOL   0.4170
9270   HW2  39.0600   4.7600  76.0200 H     1   SOL   0.4170
9271    OW   0.6300  18.1600  54.9800 O     1   SOL  -0.8340
9272   HW1   0.5600  19.0000  55.4300 H     1   SOL   0.4170
9273   HW2   1.5700  17.9700  54.9700 H     1   SOL   0.4170
9274    OW  21.4600  27.3400  68.1800 O     1   SOL  -0.8340
9275   HW1  20.5700  27.0000  68.2400 H     1   SOL   0.4170
9276   HW2  21.6400  27.3600  67.2400 H     1   SOL   0.4170
9277    OW   3.2100  20.1800  59.4900 O     1   SOL  -0.8340
9278   HW1   3.8100  20.9000  59.6700 H     1   SOL   0.4170
9279   HW2   2.3700  20.6000  59.3300 H     1   SOL   0.4170
9280    OW  27.6700  10.5600  74.4500 O     1   SOL  -0.8340
9281   HW1  27.4300   9.8500  75.0500 H     1   SOL   0.4170
9282   HW2  27.9500  11.2700  75.0200 H     1   SOL   0.4170
9283    OW  22.9100  13.6600  51.7100 O     1   SOL  -0.8340
9284   HW1  22.8800  12.8000  51.2900 H     1   SOL   0.4170
9285   HW2  22.0500  13.7600  52.1100 H     1   SOL   0.4170
9286    OW  20.7000  11.2000  52.3600 O     1   SOL  -0.8340
9287   HW1  20.3800  11.9700  52.8300 H     1   SOL   0.4170
9288   HW2  20.6600  10.4900  53.0000 H     1   SOL   0.4170
9289    OW  20.9900  42.5100  43.1800 O     1   SOL  -0.8340
9290   HW1  21.5200  41.8800  42.7000 H     1   SOL   0.4170
9291   HW2  20.6000  42.0100  43.9000 H     1   SOL   0.4170
9292    OW   9.9600   9.7000  63.4600 O     1   SOL  -0.8340
9293   HW1   9.1800   9.3400  63.0300 H     1   SOL   0.4170
9294   HW2  10.6700   9.1100  63.2200 H     1   SOL   0.4170
9295    OW  10.3000  21.7000  52.0900 O     1   SOL  -0.8340
9296   HW1   9.4500  21.2700  52.1100 H     1   SOL   0.4170
9297   HW2  10.1300  22.6000  52.3600 H     1   SOL   0.4170
9298    OW  11.8800  20.6000  66.4200 O     1   SOL  -0.8340
9299   HW1  11.5700  21.4600  66.7000 H     1   SOL   0.4170
9300   HW2  12.8300  20.6300  66.5500 H     1   SOL   0.4170
9301    OW  18.3900   2.0900  69.4800 O     1   SOL  -0.8340
9302   HW1  19.1200   2.2800  70.0600 H     1   SOL   0.4170
9303   HW2  18.2300   1.1500  69.6000 H     1   SOL   0.4170
9304    OW  39.3700   6.6900  57.2500 O     1   SOL  -0.8340
9305   HW1  38.9600   6.9500  56.4300 H     1   SOL   0.4170
9306   HW2  40.1900   6.2800  57.0000 H     1   SOL   0.4170
9307    OW   1.0100  33.8600  54.7900 O     1   SOL  -0.8340
9308   HW1   1.2000  34.3300  53.9700 H     1   SOL   0.4170
9309   HW2   0.5400  33.0800  54.5100 H     1   SOL   0.4170
9310    OW   4.0000   5.0100  56.8500 O     1   SOL  -0.8340
9311   HW1   4.6600   4.5700  57.3900 H     1   SOL   0.4170
9312   HW2   3.5000   5.5400  57.4700 H     1   SOL   0.4170
9313    OW  19.0700   4.1000  61.7000 O     1   SOL  -0.8340
9314   HW1  19.4500   3.9700  60.8300 H     1   SOL   0.4170
9315   HW2  18.6100   3.2800  61.8900 H     1   SOL   0.4170
9316    OW  32.8600  14.1500  62.8100 O     1   SOL  -0.8340
9317   HW1  32.0500  13.6600  62.6400 H     1   SOL   0.4170
9318   HW2  33.5000  13.7700  62.2100 H     1   SOL   0.4170
9319    OW  25.1100   3.8400  72.7600 O     1   SOL  -0.8340
9320   HW1  24.6700   4.2800  73.4900 H     1   SOL   0.4170
9321   HW2  26.0000   4.1700  72.7900 H     1   SOL   0.4170
9322    OW  24.5700  37.4900  74.4900 O     1   SOL  -0.8340
9323   HW1  25.2700  37.5900  75.1300 H     1   SOL   0.4170
9324   HW2  24.9000  36.8500  73.8600 H     1   SOL   0.4170
9325    OW  17.2500  12.1000  60.3200 O     1   SOL  -0.8340
9326   HW1  17.2600  11.3200  60.8700 H     1   SOL   0.4170
9327   HW2  17.9400  11.9400  59.6700 H     1   SOL   0.4170
9328    OW  22.5400   0.0600  73.9200 O     1   SOL  -0.8340
9329   HW1  23.4400   0.2700  74.1600 H     1   SOL   0.4170
9330   HW2  22.0700   0.8900  74.0100 H     1   SOL   0.4170
9331    OW  18.0900   9.0300  56.8200 O     1   SOL  -0.8340
9332   HW1  17.1700   9.2600  56.7300 H     1   SOL   0.4170
9333   HW2  18.0900   8.2700  57.4000 H     1   SOL   0.4170
9334    OW  31.7500  41.4400  52.8300 O     1   SOL  -0.8340
9335   HW1  30.9000  41.4300  52.3900 H     1   SOL   0.4170
9336   HW2  32.3900  41.4300  52.1200 H     1   SOL   0.4170
9337    OW   0.6000  17.1200  52.4000 O     1   SOL  -0.8340
9338   HW1  -0.1200  17.4400  51.8500 H     1   SOL   0.4170
9339   HW2   0.5600  17.6800  53.1700 H     1   SOL   0.4170
9340    OW  20.9800   7.7800  70.2800 O     1   SOL  -0.8340
9341   HW1  21.4600   8.6100  70.2400 H     1   SOL   0.4170
9342   HW2  21.3600   7.2600  69.5800 H     1   SOL   0.4170
9343    OW   3.0000  17.3100  55.0300 O     1   SOL  -0.8340
9344   HW1   3.7300  17.0300  54.4900 H     1   SOL   0.4170
9345   HW2   3.2600  17.0800  55.9200 H     1   SOL   0.4170
9346    OW  23.5000  11.3700  54.3500 O     1   SOL  -0.8340
9347   HW1  23.7800  10.8900  53.5700 H     1   SOL   0.4170
9348   HW2  23.0700  10.7100  54.8900 H     1   SOL   0.4170
9349    OW  32.4500  15.4600  51.4300 O     1   SOL  -0.8340
9350   HW1  31.9700  15.0700  50.7000 H     1   SOL   0.4170
9351   HW2  32.5600  14.7400  52.0500 H     1   SOL   0.4170
9352    OW   2.9800   6.2400  59.3600 O     1   SOL  -0.8340
9353   HW1   2.4400   7.0000  59.5700 H     1   SOL   0.4170
9354   HW2   3.3900   6.0100  60.2000 H     1   SOL   0.4170
9355    OW   0.2100  13.7300  66.0900 O     1   SOL  -0.8340
9356   HW1   0.3600  14.5200  66.6200 H     1   SOL   0.4170
9357   HW2  -0.6900  13.4900  66.2900 H     1   SOL   0.4170
9358    OW  31.4900   2.8300  72.8700 O     1   SOL  -0.8340
9359   HW1  32.4100   2.5900  72.7500 H     1   SOL   0.4170
9360   HW2  31.5000   3.5400  73.5000 H     1   SOL   0.4170
9361    OW  35.9900  23.4300  60.0500 O     1   SOL  -0.8340
9362   HW1  35.3700  23.9400  60.5600 H     1   SOL   0.4170
9363   HW2  35.5000  22.6500  59.7700 H     1   SOL   0.4170
9364    OW  31.8000  20.6100  55.1100 O     1   SOL  -0.8340
9365   HW1  30.8500  20.5800  55.2400 H     1   SOL   0.4170
9366   HW2  32.1700  20.3800  55.9600 H     1   SOL   0.4170
9367    OW  23.7100  35.4300  39.5900 O     1   SOL  -0.8340
9368   HW1  23.5400  35.5200  40.5300 H     1   SOL   0.4170
9369   HW2  24.3200  34.6900  39.5300 H     1   SOL   0.4170
9370    OW  28.7200   9.2400  63.1900 O     1   SOL  -0.8340
9371   HW1  28.1900   8.5000  62.8900 H     1   SOL   0.4170
9372   HW2  29.1600   9.5500  62.4000 H     1   SOL   0.4170
9373    OW  36.7100  22.2000  49.9500 O     1   SOL  -0.8340
9374   HW1  35.8900  22.4200  50.4100 H     1   SOL   0.4170
9375   HW2  36.4500  21.5200  49.3300 H     1   SOL   0.4170
9376    OW  38.2200  12.8400  59.2900 O     1   SOL  -0.8340
9377   HW1  37.7800  12.9900  58.4600 H     1   SOL   0.4170
9378   HW2  39.1400  13.0500  59.1200 H     1   SOL   0.4170
9379    OW  32.3300  19.5600  52.2900 O     1   SOL  -0.8340
9380   HW1  33.2300  19.7400  52.5700 H     1   SOL   0.4170
9381   HW2  31.8700  19.3400  53.1000 H     1   SOL   0.4170
9382    OW   0.5100   1.1500  32.0200 O     1   SOL  -0.8340
9383   HW1   0.0000   0.9400  31.2400 H     1   SOL   0.4170
9384   HW2   1.0100   0.3500  32.2000 H     1   SOL   0.4170
9385    OW  25.4600  12.7600  77.1400 O     1   SOL  -0.8340
9386   HW1  25.0200  12.0000  77.5100 H     1   SOL   0.4170
9387   HW2  24.8400  13.4800  77.2600 H     1   SOL   0.4170
9388    OW  34.9200  18.1400  69.7800 O     1   SOL  -0.8340
9389   HW1  34.4900  18.6900  70.4400 H     1   SOL   0.4170
9390   HW2  35.8600  18.2600  69.9400 H     1   SOL   0.4170
9391    OW  22.0000  11.6800  75.0000 O     1   SOL  -0.8340
9392   HW1  21.8700  12.2700  74.2600 H     1   SOL   0.4170
9393   HW2  21.8800  12.2300  75.7700 H     1   SOL   0.4170
9394    OW  41.4900  41.6400  50.8300 O     1   SOL  -0.8340
9395   HW1  40.9500  41.3200  51.5600 H     1   SOL   0.4170
9396   HW2  41.8000  42.5000  51.1200 H     1   SOL   0.4170
9397    OW   4.7200  42.5700  52.1300 O     1   SOL  -0.8340
9398   HW1   5.5400  42.3500  51.6900 H     1   SOL   0.4170
9399   HW2   4.4400  43.3900  51.7200 H     1   SOL   0.4170
9400    OW  27.5300  19.7100  43.9500 O     1   SOL  -0.8340
9401   HW1  27.0200  18.9500  44.2200 H     1   SOL   0.4170
9402   HW2  27.8200  20.1100  44.7700 H     1   SOL   0.4170
9403    OW  34.0300  13.4400  46.7800 O     1   SOL  -0.8340
9404   HW1  34.2000  14.3500  47.0000 H     1   SOL   0.4170
9405   HW2  33.5500  13.0900  47.5300 H     1   SOL   0.4170
9406    OW  20.6900  29.6300  50.8700 O     1   SOL  -0.8340
9407   HW1  21.0100  30.5400  50.8100 H     1   SOL   0.4170
9408   HW2  21.1700  29.1700  50.1900 H     1   SOL   0.4170
9409    OW  26.4600  40.0600  40.3600 O     1   SOL  -0.8340
9410   HW1  26.3100  39.3700  39.7200 H     1   SOL   0.4170
9411   HW2  27.2400  39.7700  40.8500 H     1   SOL   0.4170
9412    OW  20.6300  13.5900  76.8800 O     1   SOL  -0.8340
9413   HW1  20.2700  12.7100  77.0000 H     1   SOL   0.4170
9414   HW2  19.8800  14.1100  76.6100 H     1   SOL   0.4170
9415    OW  17.2300   5.1500  73.9100 O     1   SOL  -0.8340
9416   HW1  16.3400   4.7900  73.8900 H     1   SOL   0.4170
9417   HW2  17.2600   5.7400  73.1600 H     1   SOL   0.4170
9418    OW  34.6200   1.8100  57.8200 O     1   SOL  -0.8340
9419   HW1  35.4400   1.4100  58.1300 H     1   SOL   0.4170
9420   HW2  34.2000   1.1200  57.3100 H     1   SOL   0.4170
9421    OW  30.7700  37.7300  61.4400 O     1   SOL  -0.8340
9422   HW1  31.3400  37.4700  62.1600 H     1   SOL   0.4170
9423   HW2  31.1200  38.5600  61.1400 H     1   SOL   0.4170
9424    OW  33.9000  34.6200  59.1300 O     1   SOL  -0.8340
9425   HW1  34.5300  35.2800  59.4100 H     1   SOL   0.4170
9426   HW2  33.0700  35.0900  59.0900 H     1   SOL   0.4170
9427    OW  26.3300   6.2200  63.2400 O     1   SOL  -0.8340
9428   HW1  25.9000   6.9400  62.7700 H     1   SOL   0.4170
9429   HW2  26.2300   5.4700  62.6600 H     1   SOL   0.4170
9430    OW  28.3200  32.1200  50.4000 O     1   SOL  -0.8340
9431   HW1  28.8800  32.3900  51.1200 H     1   SOL   0.4170
9432   HW2  27.4400  32.1300  50.7600 H     1   SOL   0.4170
9433    OW  28.6600  11.5800  60.1300 O     1   SOL  -0.8340
9434   HW1  28.8800  11.8700  59.2400 H     1   SOL   0.4170
9435   HW2  29.0900  10.7200  60.2100 H     1   SOL   0.4170
9436    OW  31.1100  20.0800  74.2200 O     1   SOL  -0.8340
9437   HW1  30.4600  19.4200  74.4500 H     1   SOL   0.4170
9438   HW2  31.4100  19.8200  73.3500 H     1   SOL   0.4170
9439    OW  24.5400   7.9100  70.2700 O     1   SOL  -0.8340
9440   HW1  25.4600   8.0100  70.0100 H     1   SOL   0.4170
9441   HW2  24.1900   8.8000  70.2700 H     1   SOL   0.4170
9442    OW  30.4700  15.6800  71.4600 O     1   SOL  -0.8340
9443   HW1  30.6800  14.9600  72.0600 H     1   SOL   0.4170
9444   HW2  31.0900  15.5700  70.7400 H     1   SOL   0.4170
9445    OW  38.5600   6.6900  74.4300 O     1   SOL  -0.8340
9446   HW1  39.4600   6.3800  74.4300 H     1   SOL   0.4170
9447   HW2  38.2100   6.4400  73.5700 H     1   SOL   0.4170
9448    OW  29.4100   7.2700  70.6500 O     1   SOL  -0.8340
9449   HW1  29.9400   7.8900  70.1500 H     1   SOL   0.4170
9450   HW2  29.0200   7.8000  71.3400 H     1   SOL   0.4170
9451    OW  18.5900  17.4800  73.9100 O     1   SOL  -0.8340
9452   HW1  18.8000  16.9600  74.6800 H     1   SOL   0.4170
9453   HW2  18.1400  16.8700  73.3200 H     1   SOL   0.4170
9454    OW  24.6600   3.6600  52.6900 O     1   SOL  -0.8340
9455   HW1  24.9600   3.6600  51.7800 H     1   SOL   0.4170
9456   HW2  23.9700   2.9900  52.7200 H     1   SOL   0.4170
9457    OW  24.9000   0.3400  64.6300 O     1   SOL  -0.8340
9458   HW1  25.1500   1.1900  64.9900 H     1   SOL   0.4170
9459   HW2  24.2200   0.5300  63.9900 H     1   SOL   0.4170
9460    OW  27.1200   3.8100  77.0900 O     1   SOL  -0.8340
9461   HW1  26.1900   3.9800  77.2500 H     1   SOL   0.4170
9462   HW2  27.2300   2.8800  77.2900 H     1   SOL   0.4170
9463    OW  26.1400  10.8000  55.7500 O     1   SOL  -0.8340
9464   HW1  25.5500  11.0300  55.0400 H     1   SOL   0.4170
9465   HW2  25.7600  11.2100  56.5300 H     1   SOL   0.4170
9466    OW  19.5500  18.1500  38.0400 O     1   SOL  -0.8340
9467   HW1  18.6100  18.1600  37.8600 H     1   SOL   0.4170
9468   HW2  19.8800  18.9400  37.6100 H     1   SOL   0.4170
9469    OW  13.5600   9.8500  69.5900 O     1   SOL  -0.8340
9470   HW1  12.6500   9.8400  69.3200 H     1   SOL   0.4170
9471   HW2  14.0300   9.4100  68.8800 H     1   SOL   0.4170
9472    OW  34.7700  24.7700  67.1400 O     1   SOL  -0.8340
9473   HW1  35.6500  24.4300  67.2900 H     1   SOL   0.4170
9474   HW2  34.8900  25.5000  66.5300 H     1   SOL   0.4170
9475    OW  24.8400  20.1200  49.7200 O     1   SOL  -0.8340
9476   HW1  25.1500  19.2100  49.6500 H     1   SOL   0.4170
9477   HW2  24.0000  20.1200  49.2600 H     1   SOL   0.4170
9478    OW  33.8200  37.8200  65.5600 O     1   SOL  -0.8340
9479   HW1  33.9500  37.0300  66.0900 H     1   SOL   0.4170
9480   HW2  33.9000  38.5400  66.1900 H     1   SOL   0.4170
9481    OW  31.2800  26.8600  74.2100 O     1   SOL  -0.8340
9482   HW1  31.9600  27.3700  74.6500 H     1   SOL   0.4170
9483   HW2  31.2200  27.2400  73.3300 H     1   SOL   0.4170
9484    OW   4.8700  10.3100  72.5800 O     1   SOL  -0.8340
9485   HW1   4.6300  10.8600  71.8400 H     1   SOL   0.4170
9486   HW2   5.3400   9.5800  72.2000 H     1   SOL   0.4170
9487    OW  35.6700   4.8500  76.6800 O     1   SOL  -0.8340
9488   HW1  36.3800   5.3500  77.0700 H     1   SOL   0.4170
9489   HW2  34.8900   5.4000  76.7900 H     1   SOL   0.4170
9490    OW  21.5800   1.5200  67.1800 O     1   SOL  -0.8340
9491   HW1  21.1300   0.7400  67.5200 H     1   SOL   0.4170
9492   HW2  22.4900   1.4000  67.4500 H     1   SOL   0.4170
9493    OW  37.4800   0.6600  58.3300 O     1   SOL  -0.8340
9494   HW1  37.8900   1.1300  57.6000 H     1   SOL   0.4170
9495   HW2  38.2000   0.1800  58.7400 H     1   SOL   0.4170
9496    OW  39.0400   5.4700  71.8500 O     1   SOL  -0.8340
9497   HW1  39.9400   5.7800  71.9300 H     1   SOL   0.4170
9498   HW2  39.1100   4.6500  71.3600 H     1   SOL   0.4170
9499    OW  28.0200  22.7800  59.2300 O     1   SOL  -0.8340
9500   HW1  27.3900  22.4900  58.5700 H     1   SOL   0.4170
9501   HW2  28.2500  23.6700  58.9700 H     1   SOL   0.4170
9502    OW  23.6500  33.4500  69.4900 O     1   SOL  -0.8340
9503   HW1  22.7200  33.3000  69.3300 H     1   SOL   0.4170
9504   HW2  23.6700  34.0000  70.2700 H     1   SOL   0.4170
9505    OW  22.7700  13.9400  68.7700 O     1   SOL  -0.8340
9506   HW1  22.5500  14.8400  68.5400 H     1   SOL   0.4170
9507   HW2  22.4000  13.4100  68.0700 H     1   SOL   0.4170
9508    OW  21.4800  13.8900  65.4300 O     1   SOL  -0.8340
9509   HW1  21.2300  14.3000  66.2500 H     1   SOL   0.4170
9510   HW2  21.9100  13.0700  65.6900 H     1   SOL   0.4170
9511    OW  34.1500   7.2700  62.1300 O     1   SOL  -0.8340
9512   HW1  34.4100   8.0500  61.6500 H     1   SOL   0.4170
9513   HW2  34.2900   7.4900  63.0500 H     1   SOL   0.4170
9514    OW  34.8400  41.2300  71.6600 O     1   SOL  -0.8340
9515   HW1  34.4200  40.3800  71.8400 H     1   SOL   0.4170
9516   HW2  34.2000  41.7100  71.1400 H     1   SOL   0.4170
9517    OW  35.6400   8.2000  74.7900 O     1   SOL  -0.8340
9518   HW1  36.3600   7.6200  75.0400 H     1   SOL   0.4170
9519   HW2  35.2800   7.8200  74.0000 H     1   SOL   0.4170
9520    OW  39.1900   9.0900  66.2700 O     1   SOL  -0.8340
9521   HW1  39.4400   8.7900  67.1400 H     1   SOL   0.4170
9522   HW2  39.8100   9.7900  66.0700 H     1   SOL   0.4170
9523    OW  22.2600   1.2900  41.4500 O     1   SOL  -0.8340
9524   HW1  22.8200   0.6200  41.0500 H     1   SOL   0.4170
9525   HW2  21.6900   0.8000  42.0400 H     1   SOL   0.4170
9526    OW   9.9100  13.6500  71.9800 O     1   SOL  -0.8340
9527   HW1   9.3300  13.5100  72.7300 H     1   SOL   0.4170
9528   HW2   9.6300  12.9900  71.3400 H     1   SOL   0.4170
9529    OW  27.2700   1.1400  68.6000 O     1   SOL  -0.8340
9530   HW1  27.3900   1.1000  69.5500 H     1   SOL   0.4170
9531   HW2  27.9100   1.7800  68.3000 H     1   SOL   0.4170
9532    OW  32.5200   5.9300  67.4100 O     1   SOL  -0.8340
9533   HW1  31.8600   6.2800  68.0100 H     1   SOL   0.4170
9534   HW2  33.3400   5.9500  67.9100 H     1   SOL   0.4170
9535    OW  30.4400   8.5400  58.3000 O     1   SOL  -0.8340
9536   HW1  29.9600   7.7400  58.0900 H     1   SOL   0.4170
9537   HW2  31.3100   8.2500  58.5400 H     1   SOL   0.4170
9538    OW  17.5800  40.2500  62.3800 O     1   SOL  -0.8340
9539   HW1  16.8400  40.8100  62.6300 H     1   SOL   0.4170
9540   HW2  18.3100  40.5600  62.9100 H     1   SOL   0.4170
9541    OW  11.5700  28.4500  59.1000 O     1   SOL  -0.8340
9542   HW1  11.7700  27.5600  58.7900 H     1   SOL   0.4170
9543   HW2  12.2300  29.0000  58.6800 H     1   SOL   0.4170
9544    OW  14.3300  21.6900  64.7600 O     1   SOL  -0.8340
9545   HW1  14.4500  21.5200  65.6900 H     1   SOL   0.4170
9546   HW2  15.0700  22.2600  64.5300 H     1   SOL   0.4170
9547    OW   8.8300   9.0200  71.5400 O     1   SOL  -0.8340
9548   HW1   9.3400   8.4300  70.9900 H     1   SOL   0.4170
9549   HW2   7.9200   8.7400  71.4000 H     1   SOL   0.4170
9550    OW  24.3000   3.3800  76.8000 O     1   SOL  -0.8340
9551   HW1  24.1900   3.9000  76.0100 H     1   SOL   0.4170
9552   HW2  23.4900   3.5000  77.2900 H     1   SOL   0.4170
9553    OW   8.9300   7.6300  77.0700 O     1   SOL  -0.8340
9554   HW1   8.1900   7.0200  77.1300 H     1   SOL   0.4170
9555   HW2   8.5300   8.4900  76.9600 H     1   SOL   0.4170
9556    OW   9.1200   3.1100  62.6900 O     1   SOL  -0.8340
9557   HW1   8.6000   3.2400  63.4900 H     1   SOL   0.4170
9558   HW2   8.7100   3.6900  62.0500 H     1   SOL   0.4170
9559    OW  29.0700   3.6100  62.2100 O     1   SOL  -0.8340
9560   HW1  28.9700   3.1900  61.3600 H     1   SOL   0.4170
9561   HW2  28.2900   3.3500  62.6900 H     1   SOL   0.4170
9562    OW  12.3400   6.6900  67.8200 O     1   SOL  -0.8340
9563   HW1  13.1200   7.2400  67.9000 H     1   SOL   0.4170
9564   HW2  12.6600   5.8600  67.4700 H     1   SOL   0.4170
9565    OW  21.7000   2.1200  77.0900 O     1   SOL  -0.8340
9566   HW1  21.5900   2.2200  76.1500 H     1   SOL   0.4170
9567   HW2  22.4300   1.5000  77.1900 H     1   SOL   0.4170
9568    OW  34.7000   3.6100  73.7600 O     1   SOL  -0.8340
9569   HW1  35.2100   3.5200  74.5600 H     1   SOL   0.4170
9570   HW2  34.1300   4.3600  73.9200 H     1   SOL   0.4170
9571    OW   8.8200  39.4900  63.1100 O     1   SOL  -0.8340
9572   HW1   8.0200  39.8000  63.5400 H     1   SOL   0.4170
9573   HW2   9.1100  38.7400  63.6300 H     1   SOL   0.4170
9574    OW  19.7200   2.0800  65.2800 O     1   SOL  -0.8340
9575   HW1  20.3200   2.0100  66.0100 H     1   SOL   0.4170
9576   HW2  19.9500   2.9000  64.8500 H     1   SOL   0.4170
9577    OW  35.7500  39.5300  69.0300 O     1   SOL  -0.8340
9578   HW1  34.9600  39.1600  68.6100 H     1   SOL   0.4170
9579   HW2  36.4500  38.9400  68.7700 H     1   SOL   0.4170
9580    OW  29.4700  17.3300  54.3400 O     1   SOL  -0.8340
9581   HW1  28.5800  17.5100  54.6300 H     1   SOL   0.4170
9582   HW2  30.0300  17.7600  55.0000 H     1   SOL   0.4170
9583    OW  31.9100  40.5600  58.5300 O     1   SOL  -0.8340
9584   HW1  32.2800  40.0200  57.8400 H     1   SOL   0.4170
9585   HW2  32.0400  40.0600  59.3400 H     1   SOL   0.4170
9586    OW  39.4200  12.3300  50.2300 O     1   SOL  -0.8340
9587   HW1  40.0300  11.9400  50.8600 H     1   SOL   0.4170
9588   HW2  39.1900  11.6100  49.6500 H     1   SOL   0.4170
9589    OW  40.9500   2.4300  72.7800 O     1   SOL  -0.8340
9590   HW1  40.6200   1.5400  72.8800 H     1   SOL   0.4170
9591   HW2  40.4500   2.8000  72.0500 H     1   SOL   0.4170
9592    OW  36.4600  13.7800  71.8100 O     1   SOL  -0.8340
9593   HW1  36.4600  13.2700  71.0000 H     1   SOL   0.4170
9594   HW2  36.7300  13.1500  72.4800 H     1   SOL   0.4170
9595    OW  29.3700   5.3900  58.1300 O     1   SOL  -0.8340
9596   HW1  29.0100   4.5500  57.8300 H     1   SOL   0.4170
9597   HW2  30.2900   5.3500  57.8900 H     1   SOL   0.4170
9598    OW  18.1600  15.1200  52.9300 O     1   SOL  -0.8340
9599   HW1  17.7100  15.1800  53.7800 H     1   SOL   0.4170
9600   HW2  17.9500  15.9500  52.5000 H     1   SOL   0.4170
9601    OW   0.8700  25.3000  60.8800 O     1   SOL  -0.8340
9602   HW1   1.6200  25.6700  60.4100 H     1   SOL   0.4170
9603   HW2   1.1100  25.3600  61.8000 H     1   SOL   0.4170
9604    OW  10.1000  36.2100  51.1900 O     1   SOL  -0.8340
9605   HW1  10.5400  36.8100  51.7900 H     1   SOL   0.4170
9606   HW2  10.8100  35.8000  50.6900 H     1   SOL   0.4170
9607    OW  32.7100  30.9100  57.5200 O     1   SOL  -0.8340
9608   HW1  33.6200  31.0600  57.2800 H     1   SOL   0.4170
9609   HW2  32.6100  31.3100  58.3900 H     1   SOL   0.4170
9610    OW  28.7500   9.7100  71.7700 O     1   SOL  -0.8340
9611   HW1  28.1400  10.0600  71.1200 H     1   SOL   0.4170
9612   HW2  28.3400   9.9100  72.6100 H     1   SOL   0.4170
9613    OW  36.2300  15.0000  66.9100 O     1   SOL  -0.8340
9614   HW1  35.5600  14.7600  66.2700 H     1   SOL   0.4170
9615   HW2  36.6200  15.8000  66.5600 H     1   SOL   0.4170
9616    OW  22.6900   6.2900  52.8900 O     1   SOL  -0.8340
9617   HW1  22.4700   6.5000  51.9800 H     1   SOL   0.4170
9618   HW2  23.2700   5.5300  52.8300 H     1   SOL   0.4170
9619    OW  27.4200  24.3200  74.8300 O     1   SOL  -0.8340
9620   HW1  28.2300  23.8100  74.8300 H     1   SOL   0.4170
9621   HW2  27.6700  25.1700  74.4700 H     1   SOL   0.4170
9622    OW  29.4400  41.4000  51.1800 O     1   SOL  -0.8340
9623   HW1  29.2200  42.2700  50.8400 H     1   SOL   0.4170
9624   HW2  29.6100  40.8700  50.4000 H     1   SOL   0.4170
9625    OW  23.8500   3.7900  59.0400 O     1   SOL  -0.8340
9626   HW1  24.1100   4.1600  58.2000 H     1   SOL   0.4170
9627   HW2  22.9200   4.0000  59.1100 H     1   SOL   0.4170
9628    OW  16.2700   0.9300  71.8500 O     1   SOL  -0.8340
9629   HW1  15.4800   0.7000  72.3500 H     1   SOL   0.4170
9630   HW2  16.7300   0.1000  71.7500 H     1   SOL   0.4170
9631    OW  35.0100  11.2500  71.1800 O     1   SOL  -0.8340
9632   HW1  34.3700  10.5600  71.3500 H     1   SOL   0.4170
9633   HW2  34.5200  11.9300  70.7200 H     1   SOL   0.4170
9634    OW   6.0900   3.4400  58.5600 O     1   SOL  -0.8340
9635   HW1   6.6100   2.9700  57.9000 H     1   SOL   0.4170
9636   HW2   5.4900   2.7800  58.9000 H     1   SOL   0.4170
9637    OW   8.2600  10.5000  47.9400 O     1   SOL  -0.8340
9638   HW1   8.5500  10.5400  48.8500 H     1   SOL   0.4170
9639   HW2   8.1300  11.4100  47.6800 H     1   SOL   0.4170
9640    OW  32.9000  38.7800  68.1100 O     1   SOL  -0.8340
9641   HW1  32.4000  38.1800  67.5500 H     1   SOL   0.4170
9642   HW2  32.3700  39.5800  68.1400 H     1   SOL   0.4170
9643    OW  12.6100   1.1600  54.0300 O     1   SOL  -0.8340
9644   HW1  12.0700   0.7300  54.6900 H     1   SOL   0.4170
9645   HW2  12.9200   1.9600  54.4600 H     1   SOL   0.4170
9646    OW   7.7800  30.2200  34.7000 O     1   SOL  -0.8340
9647   HW1   7.1500  30.1600  35.4200 H     1   SOL   0.4170
9648   HW2   7.4500  30.9300  34.1400 H     1   SOL   0.4170
9649    OW  35.8100  25.3600  46.1600 O     1   SOL  -0.8340
9650   HW1  35.8600  26.3100  46.2100 H     1   SOL   0.4170
9651   HW2  35.4100  25.0900  46.9900 H     1   SOL   0.4170
9652    OW  13.4800  12.3600  47.2000 O     1   SOL  -0.8340
9653   HW1  13.7700  11.8800  46.4200 H     1   SOL   0.4170
9654   HW2  13.1200  11.6800  47.7700 H     1   SOL   0.4170
9655    OW  41.1600  18.4400  72.2300 O     1   SOL  -0.8340
9656   HW1  41.3400  18.0300  73.0800 H     1   SOL   0.4170
9657   HW2  40.3000  18.1100  71.9900 H     1   SOL   0.4170
9658    OW  25.3300   1.3500  73.8400 O     1   SOL  -0.8340
9659   HW1  25.3500   0.8500  73.0200 H     1   SOL   0.4170
9660   HW2  25.2800   2.2600  73.5600 H     1   SOL   0.4170
9661    OW  38.6900  18.0900  71.2300 O     1   SOL  -0.8340
9662   HW1  38.1100  18.8300  71.4200 H     1   SOL   0.4170
9663   HW2  38.3000  17.6600  70.4700 H     1   SOL   0.4170
9664    OW  27.7900   1.0300  71.2500 O     1   SOL  -0.8340
9665   HW1  28.0900   1.6300  71.9300 H     1   SOL   0.4170
9666   HW2  26.9700   0.6700  71.6000 H     1   SOL   0.4170
9667    OW  40.4000  35.0400  68.5800 O     1   SOL  -0.8340
9668   HW1  39.7000  34.8200  69.2000 H     1   SOL   0.4170
9669   HW2  40.9000  35.7200  69.0200 H     1   SOL   0.4170
9670    OW  23.8900  11.3800  50.0000 O     1   SOL  -0.8340
9671   HW1  23.3300  10.7300  50.4200 H     1   SOL   0.4170
9672   HW2  23.9400  11.1100  49.0800 H     1   SOL   0.4170
9673    OW  14.7500   3.7000  73.8400 O     1   SOL  -0.8340
9674   HW1  14.6200   2.7500  73.8200 H     1   SOL   0.4170
9675   HW2  13.8800   4.0500  74.0500 H     1   SOL   0.4170
9676    OW  32.0800   4.8100  76.5700 O     1   SOL  -0.8340
9677   HW1  32.2500   4.9100  75.6400 H     1   SOL   0.4170
9678   HW2  32.4000   3.9300  76.7800 H     1   SOL   0.4170
9679    OW  24.4200   3.0400  65.0900 O     1   SOL  -0.8340
9680   HW1  24.5400   3.5800  65.8700 H     1   SOL   0.4170
9681   HW2  23.4900   3.0900  64.9000 H     1   SOL   0.4170
9682    OW  37.0900   5.4800  50.7100 O     1   SOL  -0.8340
9683   HW1  36.1700   5.4100  50.4300 H     1   SOL   0.4170
9684   HW2  37.5800   5.5300  49.8900 H     1   SOL   0.4170
9685    OW  22.6900   6.5700  68.6300 O     1   SOL  -0.8340
9686   HW1  22.9600   6.7800  67.7300 H     1   SOL   0.4170
9687   HW2  23.3800   6.9300  69.1800 H     1   SOL   0.4170
9688    OW  17.9500  19.8500  57.0600 O     1   SOL  -0.8340
9689   HW1  18.4800  19.3600  57.6900 H     1   SOL   0.4170
9690   HW2  17.3000  20.3000  57.5900 H     1   SOL   0.4170
9691    OW  40.6400  13.9200  66.2600 O     1   SOL  -0.8340
9692   HW1  40.4500  14.7600  65.8400 H     1   SOL   0.4170
9693   HW2  40.0600  13.8900  67.0200 H     1   SOL   0.4170
9694    OW  28.9600   2.2500  73.5300 O     1   SOL  -0.8340
9695   HW1  28.9800   1.4200  74.0000 H     1   SOL   0.4170
9696   HW2  29.8800   2.5000  73.4300 H     1   SOL   0.4170
9697    OW   8.1100   2.8100  65.4100 O     1   SOL  -0.8340
9698   HW1   7.6900   3.3000  66.1100 H     1   SOL   0.4170
9699   HW2   8.9900   3.1700  65.3500 H     1   SOL   0.4170
9700    OW  42.9600  25.3600  70.8100 O     1   SOL  -0.8340
9701   HW1  43.4200  26.1600  70.5700 H     1   SOL   0.4170
9702   HW2  43.6000  24.8600  71.3100 H     1   SOL   0.4170
9703    OW  27.6200  31.8600  67.5200 O     1   SOL  -0.8340
9704   HW1  26.7700  32.0300  67.1300 H     1   SOL   0.4170
9705   HW2  28.1600  31.5300  66.8000 H     1   SOL   0.4170
9706    OW   6.3100   5.9000  66.0900 O     1   SOL  -0.8340
9707   HW1   6.1300   4.9800  65.8700 H     1   SOL   0.4170
9708   HW2   5.4800   6.2300  66.4400 H     1   SOL   0.4170
9709    OW   8.6300  11.7600  70.6500 O     1   SOL  -0.8340
9710   HW1   8.7700  10.8400  70.8700 H     1   SOL   0.4170
9711   HW2   8.0500  11.7500  69.9000 H     1   SOL   0.4170
9712    OW   5.8400  42.9800  69.2100 O     1   SOL  -0.8340
9713   HW1   6.1700  42.3700  68.5400 H     1   SOL   0.4170
9714   HW2   6.3200  43.7900  69.0500 H     1   SOL   0.4170
9715    OW  20.2600  32.2100  45.4700 O     1   SOL  -0.8340
9716   HW1  21.0700  31.8500  45.1000 H     1   SOL   0.4170
9717   HW2  19.6300  32.1500  44.7500 H     1   SOL   0.4170
9718    OW  21.8500   5.5600  50.4900 O     1   SOL  -0.8340
9719   HW1  21.2400   5.9800  49.8800 H     1   SOL   0.4170
9720   HW2  22.5200   5.1600  49.9400 H     1   SOL   0.4170
9721    OW  24.9000  28.7200  54.5700 O     1   SOL  -0.8340
9722   HW1  25.5100  28.7600  55.3100 H     1   SOL   0.4170
9723   HW2  24.1400  28.2600  54.9100 H     1   SOL   0.4170
9724    OW  25.6200   4.2300  60.9900 O     1   SOL  -0.8340
9725   HW1  24.9500   4.1300  60.3200 H     1   SOL   0.4170
9726   HW2  26.3300   4.7200  60.5600 H     1   SOL   0.4170
9727    OW  28.0300  42.0600  67.2900 O     1   SOL  -0.8340
9728   HW1  27.5800  42.8500  67.5900 H     1   SOL   0.4170
9729   HW2  28.7000  42.3800  66.6900 H     1   SOL   0.4170
9730    OW  23.0100   4.5700  48.2300 O     1   SOL  -0.8340
9731   HW1  22.2400   4.0300  48.0800 H     1   SOL   0.4170
9732   HW2  23.1400   5.0400  47.4000 H     1   SOL   0.4170
9733    OW  24.2900   2.8000  70.2000 O     1   SOL  -0.8340
9734   HW1  24.6600   3.1200  71.0200 H     1   SOL   0.4170
9735   HW2  23.5800   3.4200  70.0000 H     1   SOL   0.4170
9736    OW  30.9600  10.2700  76.2100 O     1   SOL  -0.8340
9737   HW1  30.2200  10.8600  76.0900 H     1   SOL   0.4170
9738   HW2  30.6600   9.6200  76.8500 H     1   SOL   0.4170
9739    OW  17.2300  23.5800  70.9000 O     1   SOL  -0.8340
9740   HW1  16.6800  23.1200  71.5300 H     1   SOL   0.4170
9741   HW2  17.7700  24.1700  71.4400 H     1   SOL   0.4170
9742    OW  33.0300  11.9600  76.9200 O     1   SOL  -0.8340
9743   HW1  33.5700  11.2400  76.5800 H     1   SOL   0.4170
9744   HW2  32.1400  11.6100  76.9200 H     1   SOL   0.4170
9745    OW  19.2600  20.4200  68.3000 O     1   SOL  -0.8340
9746   HW1  19.2100  19.4600  68.2100 H     1   SOL   0.4170
9747   HW2  18.9000  20.5900  69.1600 H     1   SOL   0.4170
9748    OW  29.7300  20.7400  76.9600 O     1   SOL  -0.8340
9749   HW1  30.0400  21.5300  76.5200 H     1   SOL   0.4170
9750   HW2  30.4500  20.1200  76.8800 H     1   SOL   0.4170
9751    OW  25.7300  37.3100  76.9400 O     1   SOL  -0.8340
9752   HW1  25.9400  37.6500  77.8100 H     1   SOL   0.4170
9753   HW2  24.9000  36.8400  77.0600 H     1   SOL   0.4170
9754    OW  27.8900  23.1300  63.8100 O     1   SOL  -0.8340
9755   HW1  28.3700  23.0500  62.9900 H     1   SOL   0.4170
9756   HW2  27.4600  22.2800  63.9300 H     1   SOL   0.4170
9757    OW  32.5600  16.5600  77.0900 O     1   SOL  -0.8340
9758   HW1  31.6600  16.6200  76.7700 H     1   SOL   0.4170
9759   HW2  32.6100  17.2000  77.8000 H     1   SOL   0.4170
9760    OW  19.7200  17.3900  68.6600 O     1   SOL  -0.8340
9761   HW1  19.4200  17.0300  67.8300 H     1   SOL   0.4170
9762   HW2  19.0100  17.2000  69.2700 H     1   SOL   0.4170
9763    OW  34.6400  36.8600  70.2600 O     1   SOL  -0.8340
9764   HW1  35.5800  36.8000  70.0900 H     1   SOL   0.4170
9765   HW2  34.2300  36.5800  69.4400 H     1   SOL   0.4170
9766    OW  24.7700   5.9800  57.3000 O     1   SOL  -0.8340
9767   HW1  24.5800   5.3200  56.6300 H     1   SOL   0.4170
9768   HW2  25.1200   6.7200  56.8100 H     1   SOL   0.4170
9769    OW  25.4800  40.0900  74.0900 O     1   SOL  -0.8340
9770   HW1  25.2000  40.7100  74.7600 H     1   SOL   0.4170
9771   HW2  24.8500  39.3800  74.1400 H     1   SOL   0.4170
9772    OW  22.5400   0.8500  70.8300 O     1   SOL  -0.8340
9773   HW1  21.8800   1.5200  70.6600 H     1   SOL   0.4170
9774   HW2  23.3800   1.2900  70.6700 H     1   SOL   0.4170
9775    OW  34.9200   8.7900  68.8300 O     1   SOL  -0.8340
9776   HW1  34.4100   8.8200  69.6500 H     1   SOL   0.4170
9777   HW2  34.9200   9.7000  68.5300 H     1   SOL   0.4170
9778    OW  19.0100  15.7000  76.4800 O     1   SOL  -0.8340
9779   HW1  19.6800  16.0500  77.0600 H     1   SOL   0.4170
9780   HW2  18.1900  16.0700  76.8000 H     1   SOL   0.4170
9781    OW  26.2400   9.6700  77.0300 O     1   SOL  -0.8340
9782   HW1  25.3500   9.8900  76.7700 H     1   SOL   0.4170
9783   HW2  26.7400  10.4600  76.8400 H     1   SOL   0.4170
9784    OW  33.2700  14.0800  68.2800 O     1   SOL  -0.8340
9785   HW1  32.7300  14.0800  67.5000 H     1   SOL   0.4170
9786   HW2  32.7500  13.6300  68.9500 H     1   SOL   0.4170
9787    OW  32.8900   2.2600  76.8800 O     1   SOL  -0.8340
9788   HW1  32.6900   1.9000  77.7500 H     1   SOL   0.4170
9789   HW2  32.9000   1.5000  76.3000 H     1   SOL   0.4170
9790    OW  34.5300   2.3900  64.4300 O     1   SOL  -0.8340
9791   HW1  34.2800   3.2200  64.8400 H     1   SOL   0.4170
9792   HW2  35.1200   1.9800  65.0600 H     1   SOL   0.4170
9793    OW  29.3600   5.9500  76.9100 O     1   SOL  -0.8340
9794   HW1  28.6700   5.4800  77.3700 H     1   SOL   0.4170
9795   HW2  30.1700   5.5100  77.1800 H     1   SOL   0.4170
9796    OW  23.8200  10.0700  74.1000 O     1   SOL  -0.8340
9797   HW1  23.0800  10.6300  74.3000 H     1   SOL   0.4170
9798   HW2  24.4900  10.6600  73.7600 H     1   SOL   0.4170
9799    OW  29.6500  17.0300  76.6000 O     1   SOL  -0.8340
9800   HW1  29.0600  17.7600  76.7900 H     1   SOL   0.4170
9801   HW2  29.6300  16.9600  75.6400 H     1   SOL   0.4170
9802    OW  16.4400  12.8400  69.8400 O     1   SOL  -0.8340
9803   HW1  16.4800  13.4700  69.1300 H     1   SOL   0.4170
9804   HW2  15.8700  13.2400  70.4900 H     1   SOL   0.4170
9805    OW  20.4300  33.6400  74.6400 O     1   SOL  -0.8340
9806   HW1  20.3500  32.8100  74.1600 H     1   SOL   0.4170
9807   HW2  20.1400  34.3000  74.0200 H     1   SOL   0.4170
9808    OW   2.9500  12.6000  74.4700 O     1   SOL  -0.8340
9809   HW1   3.1600  12.0300  75.2100 H     1   SOL   0.4170
9810   HW2   2.1800  12.2000  74.0700 H     1   SOL   0.4170
9811    OW  18.6400   9.6500  70.7200 O     1   SOL  -0.8340
9812   HW1  19.3200  10.0000  70.1500 H     1   SOL   0.4170
9813   HW2  19.1200   9.2700  71.4600 H     1   SOL   0.4170
9814    OW  23.8200   0.5900  76.6900 O     1   SOL  -0.8340
9815   HW1  24.6000   0.0500  76.8200 H     1   SOL   0.4170
9816   HW2  24.1500   1.4800  76.6000 H     1   SOL   0.4170
9817    OW  28.1300  12.0100  76.7300 O     1   SOL  -0.8340
9818   HW1  27.3100  12.4500  76.9700 H     1   SOL   0.4170
9819   HW2  28.8100  12.6400  76.9500 H     1   SOL   0.4170
9820    OW  26.4200   7.1900  50.0500 O     1   SOL  -0.8340
9821   HW1  26.5600   6.6100  50.8000 H     1   SOL   0.4170
9822   HW2  27.0400   6.8800  49.3900 H     1   SOL   0.4170
9823    OW  28.9400   8.6800  76.9300 O     1   SOL  -0.8340
9824   HW1  28.0600   8.8200  77.2800 H     1   SOL   0.4170
9825   HW2  28.9600   7.7500  76.7100 H     1   SOL   0.4170
9826    OW   3.5500   1.2700  70.2100 O     1   SOL  -0.8340
9827   HW1   3.8800   0.3800  70.0800 H     1   SOL   0.4170
9828   HW2   2.6100   1.2000  70.0400 H     1   SOL   0.4170
9829    OW  34.2000  21.4000  76.6800 O     1   SOL  -0.8340
9830   HW1  34.9400  20.8500  76.9500 H     1   SOL   0.4170
9831   HW2  34.5700  22.2800  76.6100 H     1   SOL   0.4170
9832    OW  31.8900  32.4000  14.7800 O     1   SOL  -0.8340
9833   HW1  31.6700  31.8100  15.5100 H     1   SOL   0.4170
9834   HW2  31.0900  32.4500  14.2700 H     1   SOL   0.4170
9835    OW  34.5700  28.6400   6.7600 O     1   SOL  -0.8340
9836   HW1  35.3200  28.0900   6.9700 H     1   SOL   0.4170
9837   HW2  34.9500  29.4300   6.3700 H     1   SOL   0.4170
9838    OW  30.0000  22.4700   6.9000 O     1   SOL  -0.8340
9839   HW1  29.9500  22.2100   7.8200 H     1   SOL   0.4170
9840   HW2  30.7100  23.1000   6.8600 H     1   SOL   0.4170
9841    OW  26.1500  26.8400   7.1000 O     1   SOL  -0.8340
9842   HW1  27.1000  26.7600   7.1500 H     1   SOL   0.4170
9843   HW2  25.8400  25.9500   7.0100 H     1   SOL   0.4170
9844    OW  22.5400  13.3800  27.8300 O     1   SOL  -0.8340
9845   HW1  22.3000  14.1100  27.2500 H     1   SOL   0.4170
9846   HW2  21.7100  13.0100  28.1100 H     1   SOL   0.4170
9847    OW  25.4800  23.4800   6.8300 O     1   SOL  -0.8340
9848   HW1  25.2500  22.5800   7.0800 H     1   SOL   0.4170
9849   HW2  24.6300  23.9200   6.7100 H     1   SOL   0.4170
9850    OW  35.5900   4.0000  20.5000 O     1   SOL  -0.8340
9851   HW1  35.3200   4.8300  20.1000 H     1   SOL   0.4170
9852   HW2  34.8800   3.7700  21.0900 H     1   SOL   0.4170
9853    OW  37.7000  26.2000  18.2800 O     1   SOL  -0.8340
9854   HW1  37.2300  27.0000  18.0400 H     1   SOL   0.4170
9855   HW2  38.6100  26.4800  18.3900 H     1   SOL   0.4170
9856    OW   4.5200  34.8900  10.2900 O     1   SOL  -0.8340
9857   HW1   4.6500  34.6600  11.2100 H     1   SOL   0.4170
9858   HW2   4.7300  35.8200  10.2500 H     1   SOL   0.4170
9859    OW  30.6600  26.3000  12.0300 O     1   SOL  -0.8340
9860   HW1  29.7500  26.6000  11.9300 H     1   SOL   0.4170
9861   HW2  31.0300  26.3700  11.1500 H     1   SOL   0.4170
9862    OW  39.5200  22.9800   6.9900 O     1   SOL  -0.8340
9863   HW1  40.4500  22.7600   6.8600 H     1   SOL   0.4170
9864   HW2  39.4900  23.9400   6.9200 H     1   SOL   0.4170
9865    OW  24.3500  31.8600  13.3300 O     1   SOL  -0.8340
9866   HW1  25.1900  32.1100  13.7100 H     1   SOL   0.4170
9867   HW2  23.9200  31.3400  14.0200 H     1   SOL   0.4170
9868    OW  18.2800  34.6000   7.0400 O     1   SOL  -0.8340
9869   HW1  18.7600  35.2600   7.5400 H     1   SOL   0.4170
9870   HW2  18.9700  34.0500   6.6700 H     1   SOL   0.4170
9871    OW  27.5100  29.2000   7.5700 O     1   SOL  -0.8340
9872   HW1  26.6600  28.8700   7.2800 H     1   SOL   0.4170
9873   HW2  28.1400  28.5200   7.3000 H     1   SOL   0.4170
9874    OW  30.4600  17.6100  16.9900 O     1   SOL  -0.8340
9875   HW1  30.2200  16.7100  16.7700 H     1   SOL   0.4170
9876   HW2  29.8900  18.1500  16.4400 H     1   SOL   0.4170
9877    OW  36.7300  29.2500  12.3300 O     1   SOL  -0.8340
9878   HW1  36.7800  29.8300  11.5700 H     1   SOL   0.4170
9879   HW2  37.6200  29.2400  12.6800 H     1   SOL   0.4170
9880    OW  38.4200   1.2400  18.4300 O     1   SOL  -0.8340
9881   HW1  39.1200   1.6600  18.9400 H     1   SOL   0.4170
9882   HW2  38.8600   0.8500  17.6800 H     1   SOL   0.4170
9883    OW  23.8100  28.1800   6.7800 O     1   SOL  -0.8340
9884   HW1  24.2900  28.9200   6.4300 H     1   SOL   0.4170
9885   HW2  24.4800  27.5600   7.0700 H     1   SOL   0.4170
9886    OW  20.8700  18.6600  10.9400 O     1   SOL  -0.8340
9887   HW1  21.4200  19.1000  10.3000 H     1   SOL   0.4170
9888   HW2  20.1000  19.2200  11.0200 H     1   SOL   0.4170
9889    OW  17.4800   7.2100   8.5600 O     1   SOL  -0.8340
9890   HW1  16.5700   6.9300   8.6700 H     1   SOL   0.4170
9891   HW2  17.8300   7.2100   9.4500 H     1   SOL   0.4170
9892    OW   9.1600  14.7200  15.7900 O     1   SOL  -0.8340
9893   HW1   9.7100  14.0200  16.1300 H     1   SOL   0.4170
9894   HW2   8.2700  14.3800  15.8500 H     1   SOL   0.4170
9895    OW  37.9200  33.1200   7.0900 O     1   SOL  -0.8340
9896   HW1  37.6200  33.0700   8.0000 H     1   SOL   0.4170
9897   HW2  37.7200  32.2600   6.7300 H     1   SOL   0.4170
9898    OW  31.9300  24.6100   6.6400 O     1   SOL  -0.8340
9899   HW1  31.6100  25.4900   6.4500 H     1   SOL   0.4170
9900   HW2  32.8600  24.7300   6.8200 H     1   SOL   0.4170
9901    OW  25.0100  30.5000   6.5300 O     1   SOL  -0.8340
9902   HW1  24.5200  31.2800   6.2800 H     1   SOL   0.4170
9903   HW2  25.9100  30.8100   6.6500 H     1   SOL   0.4170
9904    OW  11.5900  27.7900   6.8700 O     1   SOL  -0.8340
9905   HW1  11.8400  27.3200   7.6700 H     1   SOL   0.4170
9906   HW2  12.3400  27.6800   6.2800 H     1   SOL   0.4170
9907    OW  26.1100   0.0200  20.8600 O     1   SOL  -0.8340
9908   HW1  25.6000  -0.6300  20.3800 H     1   SOL   0.4170
9909   HW2  26.9000   0.1400  20.3300 H     1   SOL   0.4170
9910    OW  20.7100  14.2800   8.8000 O     1   SOL  -0.8340
9911   HW1  20.3400  15.1300   9.0200 H     1   SOL   0.4170
9912   HW2  19.9700  13.7800   8.4400 H     1   SOL   0.4170
9913    OW  36.6000  30.7600   7.2400 O     1   SOL  -0.8340
9914   HW1  37.0400  29.9400   7.0100 H     1   SOL   0.4170
9915   HW2  36.5600  30.7600   8.1900 H     1   SOL   0.4170
9916    OW  37.7200  32.8400  11.5100 O     1   SOL  -0.8340
9917   HW1  38.0700  32.7000  12.3900 H     1   SOL   0.4170
9918   HW2  37.6100  33.7900  11.4400 H     1   SOL   0.4170
9919    OW  29.1600  27.2100   6.9100 O     1   SOL  -0.8340
9920   HW1  30.0600  27.5200   6.8500 H     1   SOL   0.4170
9921   HW2  29.2100  26.2900   6.6500 H     1   SOL   0.4170
9922    OW  38.6300  38.8300  11.5000 O     1   SOL  -0.8340
9923   HW1  38.8000  38.1900  10.8100 H     1   SOL   0.4170
9924   HW2  39.5000  39.0500  11.8400 H     1   SOL   0.4170
9925    OW  25.3300  38.1200   6.5100 O     1   SOL  -0.8340
9926   HW1  24.9300  37.4300   5.9700 H     1   SOL   0.4170
9927   HW2  26.2300  37.8200   6.6300 H     1   SOL   0.4170
9928    OW  19.5200   6.8400  23.6000 O     1   SOL  -0.8340
9929   HW1  19.1800   6.8300  22.7100 H     1   SOL   0.4170
9930   HW2  20.3100   7.3700  23.5500 H     1   SOL   0.4170
9931    OW  40.0000  35.1300  13.4400 O     1   SOL  -0.8340
9932   HW1  40.1500  35.9400  13.9300 H     1   SOL   0.4170
9933   HW2  39.1800  34.7800  13.8000 H     1   SOL   0.4170
9934    OW  33.1700  37.5500  19.9200 O     1   SOL  -0.8340
9935   HW1  33.8900  38.1800  19.8000 H     1   SOL   0.4170
9936   HW2  33.1600  37.0500  19.1100 H     1   SOL   0.4170
9937    OW  14.6800  34.1700  18.7000 O     1   SOL  -0.8340
9938   HW1  14.0400  34.8800  18.6800 H     1   SOL   0.4170
9939   HW2  15.0900  34.2000  17.8300 H     1   SOL   0.4170
9940    OW  22.9500  33.7300  12.2000 O     1   SOL  -0.8340
9941   HW1  23.4400  33.0400  12.6500 H     1   SOL   0.4170
9942   HW2  22.6800  34.3300  12.9000 H     1   SOL   0.4170
9943    OW  33.8500  35.8400  17.8300 O     1   SOL  -0.8340
9944   HW1  33.6300  34.9200  17.9700 H     1   SOL   0.4170
9945   HW2  34.0100  35.9100  16.8900 H     1   SOL   0.4170
9946    OW  20.4000  33.0500   6.5600 O     1   SOL  -0.8340
9947   HW1  21.2800  33.2400   6.2300 H     1   SOL   0.4170
9948   HW2  20.2800  32.1200   6.3800 H     1   SOL   0.4170
9949    OW  28.7800  33.9200   6.6600 O     1   SOL  -0.8340
9950   HW1  28.9700  33.8900   7.6000 H     1   SOL   0.4170
9951   HW2  29.1800  34.7400   6.3600 H     1   SOL   0.4170
9952    OW  27.9800  24.3800   6.8000 O     1   SOL  -0.8340
9953   HW1  27.1200  23.9600   6.7400 H     1   SOL   0.4170
9954   HW2  28.6000  23.6500   6.8900 H     1   SOL   0.4170
9955    OW  32.2800  16.3300   6.6000 O     1   SOL  -0.8340
9956   HW1  32.6700  17.0500   6.1000 H     1   SOL   0.4170
9957   HW2  32.8800  15.6000   6.4700 H     1   SOL   0.4170
9958    OW  24.5400  13.8200   7.0200 O     1   SOL  -0.8340
9959   HW1  24.8300  12.9200   6.8600 H     1   SOL   0.4170
9960   HW2  23.5900  13.7800   7.0000 H     1   SOL   0.4170
9961    OW  32.1500  31.8700  10.8500 O     1   SOL  -0.8340
9962   HW1  31.6000  32.6200  11.0800 H     1   SOL   0.4170
9963   HW2  32.8600  32.2400  10.3300 H     1   SOL   0.4170
9964    OW  32.0000  27.4800   6.8600 O     1   SOL  -0.8340
9965   HW1  32.7300  28.0100   6.5400 H     1   SOL   0.4170
9966   HW2  31.8000  27.8500   7.7300 H     1   SOL   0.4170
9967    OW  34.8200  23.7700  24.5800 O     1   SOL  -0.8340
9968   HW1  33.8900  23.7400  24.7900 H     1   SOL   0.4170
9969   HW2  35.2200  23.1500  25.1900 H     1   SOL   0.4170
9970    OW  35.3600  18.3200  19.2300 O     1   SOL  -0.8340
9971   HW1  34.6600  18.2500  18.5800 H     1   SOL   0.4170
9972   HW2  35.3800  19.2500  19.4600 H     1   SOL   0.4170
9973    OW  34.9700  31.8800  11.9000 O     1   SOL  -0.8340
9974   HW1  35.7400  32.2600  11.4700 H     1   SOL   0.4170
9975   HW2  34.6900  31.1800  11.3100 H     1   SOL   0.4170
9976    OW  40.5800  35.8200  23.0100 O     1   SOL  -0.8340
9977   HW1  39.8700  35.5900  22.4100 H     1   SOL   0.4170
9978   HW2  40.6100  35.0900  23.6300 H     1   SOL   0.4170
9979    OW  35.7500  24.6700  15.7100 O     1   SOL  -0.8340
9980   HW1  35.5700  25.6100  15.7200 H     1   SOL   0.4170
9981   HW2  35.0600  24.2800  16.2300 H     1   SOL   0.4170
9982    OW  26.0200  18.8300   7.1400 O     1   SOL  -0.8340
9983   HW1  26.8600  19.2300   6.9200 H     1   SOL   0.4170
9984   HW2  26.0100  18.0100   6.6500 H     1   SOL   0.4170
9985    OW  16.2000  23.9600  23.9800 O     1   SOL  -0.8340
9986   HW1  15.6000  24.3300  23.3400 H     1   SOL   0.4170
9987   HW2  17.0100  24.4500  23.8600 H     1   SOL   0.4170
9988    OW  34.2500  16.6100  35.7100 O     1   SOL  -0.8340
9989   HW1  33.4300  16.1600  35.9100 H     1   SOL   0.4170
9990   HW2  34.2200  16.7600  34.7700 H     1   SOL   0.4170
9991    OW   5.1300  15.9600  13.7200 O     1   SOL  -0.8340
9992   HW1   4.7400  15.8300  14.5800 H     1   SOL   0.4170
9993   HW2   5.0800  15.1100  13.3000 H     1   SOL   0.4170
9994    OW  32.4500  27.7000  13.2700 O     1   SOL  -0.8340
9995   HW1  31.9100  27.6000  14.0600 H     1   SOL   0.4170
9996   HW2  32.0600  27.1000  12.6400 H     1   SOL   0.4170
9997    OW  18.2800  24.0600  10.4400 O     1   SOL  -0.8340
9998   HW1  18.5400  23.4600  11.1400 H     1   SOL   0.4170
9999   HW2  18.9600  24.7300  10.4200 H     1   SOL   0.4170
10000    OW  14.4600  42.7900  32.5300 O     1   SOL  -0.8340
10001   HW1  14.6400  41.8500  32.5500 H     1   SOL   0.4170
10002   HW2  14.8700  43.1300  33.3300 H     1   SOL   0.4170
10003    OW  30.4400  25.4000  14.6800 O     1   SOL  -0.8340
10004   HW1  30.5900  25.9100  13.8900 H     1   SOL   0.4170
10005   HW2  29.5400  25.0900  14.5900 H     1   SOL   0.4170
10006    OW  22.8400   0.2600   6.8000 O     1   SOL  -0.8340
10007   HW1  23.4900   0.9000   6.5200 H     1   SOL   0.4170
10008   HW2  23.2900  -0.2700   7.4700 H     1   SOL   0.4170
10009    OW  32.5100   7.5200  28.9800 O     1   SOL  -0.8340
10010   HW1  33.2300   6.9600  29.2400 H     1   SOL   0.4170
10011   HW2  32.8800   8.4000  28.9600 H     1   SOL   0.4170
10012    OW  28.9200   0.1500  20.1200 O     1   SOL  -0.8340
10013   HW1  28.7900   0.9000  20.7000 H     1   SOL   0.4170
10014   HW2  29.5800   0.4400  19.5000 H     1   SOL   0.4170
10015    OW  25.5100  18.4700   9.7200 O     1   SOL  -0.8340
10016   HW1  25.8700  18.6000   8.8400 H     1   SOL   0.4170
10017   HW2  25.1000  17.6000   9.6900 H     1   SOL   0.4170
10018    OW  38.9200  16.8100  14.3400 O     1   SOL  -0.8340
10019   HW1  38.7500  16.0200  14.8600 H     1   SOL   0.4170
10020   HW2  38.2100  17.4100  14.5900 H     1   SOL   0.4170
10021    OW  29.4500   2.1500  14.2200 O     1   SOL  -0.8340
10022   HW1  29.8000   2.7700  14.8600 H     1   SOL   0.4170
10023   HW2  28.6300   1.8500  14.6100 H     1   SOL   0.4170
10024    OW  12.7700  16.5100  16.8400 O     1   SOL  -0.8340
10025   HW1  12.8600  17.3800  17.2300 H     1   SOL   0.4170
10026   HW2  11.9000  16.2100  17.1200 H     1   SOL   0.4170
10027    OW  28.9200  23.5700  24.4200 O     1   SOL  -0.8340
10028   HW1  28.8100  24.5000  24.6400 H     1   SOL   0.4170
10029   HW2  28.1200  23.3600  23.9300 H     1   SOL   0.4170
10030    OW  31.1700  39.7600  10.5900 O     1   SOL  -0.8340
10031   HW1  30.9500  40.4700   9.9900 H     1   SOL   0.4170
10032   HW2  31.4200  40.1900  11.4000 H     1   SOL   0.4170
10033    OW   4.0600  21.7200   9.0300 O     1   SOL  -0.8340
10034   HW1   3.1500  21.9000   9.2800 H     1   SOL   0.4170
10035   HW2   4.4600  21.3300   9.8000 H     1   SOL   0.4170
10036    OW  39.7000   0.1600   9.9200 O     1   SOL  -0.8340
10037   HW1  40.1700   0.8200  10.4300 H     1   SOL   0.4170
10038   HW2  38.8100   0.5000   9.8500 H     1   SOL   0.4170
10039    OW  11.3300  20.8500   9.4600 O     1   SOL  -0.8340
10040   HW1  11.9000  20.0800   9.4200 H     1   SOL   0.4170
10041   HW2  11.7100  21.4000  10.1400 H     1   SOL   0.4170
10042    OW  38.1200  35.8900   6.8900 O     1   SOL  -0.8340
10043   HW1  37.6500  35.1200   6.5800 H     1   SOL   0.4170
10044   HW2  39.0100  35.5700   7.0700 H     1   SOL   0.4170
10045    OW   3.7100  25.6000  18.5900 O     1   SOL  -0.8340
10046   HW1   3.4900  24.8300  18.0600 H     1   SOL   0.4170
10047   HW2   4.6200  25.4600  18.8600 H     1   SOL   0.4170
10048    OW  28.6000  10.4800  25.2700 O     1   SOL  -0.8340
10049   HW1  29.1100  11.2600  25.0500 H     1   SOL   0.4170
10050   HW2  28.6800  10.3900  26.2200 H     1   SOL   0.4170
10051    OW  37.8900  27.5800  21.2300 O     1   SOL  -0.8340
10052   HW1  37.7900  28.2300  20.5300 H     1   SOL   0.4170
10053   HW2  37.0000  27.4300  21.5400 H     1   SOL   0.4170
10054    OW  27.8900  25.0500   9.4900 O     1   SOL  -0.8340
10055   HW1  28.4900  24.4600   9.9500 H     1   SOL   0.4170
10056   HW2  28.0900  24.9200   8.5700 H     1   SOL   0.4170
10057    OW  26.3200  34.8700  16.3500 O     1   SOL  -0.8340
10058   HW1  27.1800  34.5700  16.0500 H     1   SOL   0.4170
10059   HW2  25.9700  35.3600  15.6100 H     1   SOL   0.4170
10060    OW  24.0000  15.4800  33.1200 O     1   SOL  -0.8340
10061   HW1  23.5800  15.6100  33.9800 H     1   SOL   0.4170
10062   HW2  23.2800  15.2300  32.5500 H     1   SOL   0.4170
10063    OW  25.6100  36.4100  18.7400 O     1   SOL  -0.8340
10064   HW1  26.0100  36.0500  17.9500 H     1   SOL   0.4170
10065   HW2  25.4300  37.3200  18.5200 H     1   SOL   0.4170
10066    OW  37.7900  18.8100   9.9700 O     1   SOL  -0.8340
10067   HW1  38.6500  18.8800  10.4000 H     1   SOL   0.4170
10068   HW2  37.2700  19.5000  10.3900 H     1   SOL   0.4170
10069    OW  34.3900  43.1800  10.3100 O     1   SOL  -0.8340
10070   HW1  34.1800  43.4400  11.2000 H     1   SOL   0.4170
10071   HW2  34.0100  43.8600   9.7600 H     1   SOL   0.4170
10072    OW  28.5400  20.2400   6.8200 O     1   SOL  -0.8340
10073   HW1  29.1000  21.0200   6.8600 H     1   SOL   0.4170
10074   HW2  29.1200  19.5300   6.5600 H     1   SOL   0.4170
10075    OW   5.2400  22.6600  42.6600 O     1   SOL  -0.8340
10076   HW1   4.7900  22.6000  43.5000 H     1   SOL   0.4170
10077   HW2   5.9000  23.3400  42.7800 H     1   SOL   0.4170
10078    OW  12.9200  24.9500  13.7500 O     1   SOL  -0.8340
10079   HW1  13.7200  24.9300  14.2800 H     1   SOL   0.4170
10080   HW2  13.2000  25.3100  12.9100 H     1   SOL   0.4170
10081    OW  27.0000  29.8600  11.8800 O     1   SOL  -0.8340
10082   HW1  26.4600  30.5200  11.4500 H     1   SOL   0.4170
10083   HW2  26.8700  29.0600  11.3700 H     1   SOL   0.4170
10084    OW  17.0300  26.4400  26.3300 O     1   SOL  -0.8340
10085   HW1  16.1100  26.4300  26.0400 H     1   SOL   0.4170
10086   HW2  17.1000  25.6900  26.9200 H     1   SOL   0.4170
10087    OW  42.9200  32.5400  28.4400 O     1   SOL  -0.8340
10088   HW1  42.5500  31.7300  28.0900 H     1   SOL   0.4170
10089   HW2  43.7900  32.6000  28.0400 H     1   SOL   0.4170
10090    OW  20.0100  37.5800  15.7800 O     1   SOL  -0.8340
10091   HW1  20.0600  36.9400  15.0600 H     1   SOL   0.4170
10092   HW2  19.6400  37.0900  16.5100 H     1   SOL   0.4170
10093    OW  23.2200  25.0600   6.6000 O     1   SOL  -0.8340
10094   HW1  22.4700  24.4700   6.4700 H     1   SOL   0.4170
10095   HW2  22.8600  25.9300   6.4600 H     1   SOL   0.4170
10096    OW  37.1100  21.7900  23.1300 O     1   SOL  -0.8340
10097   HW1  37.1800  22.5400  22.5300 H     1   SOL   0.4170
10098   HW2  37.4000  21.0400  22.6100 H     1   SOL   0.4170
10099    OW  31.3500  43.1400  14.7400 O     1   SOL  -0.8340
10100   HW1  30.6200  42.6300  15.0900 H     1   SOL   0.4170
10101   HW2  30.9900  44.0000  14.5500 H     1   SOL   0.4170
10102    OW  31.0900  29.5900  11.8600 O     1   SOL  -0.8340
10103   HW1  31.5700  30.2800  11.4100 H     1   SOL   0.4170
10104   HW2  31.7500  29.0800  12.3100 H     1   SOL   0.4170
10105    OW  27.1400  31.9300   7.0200 O     1   SOL  -0.8340
10106   HW1  27.3100  31.0400   7.3200 H     1   SOL   0.4170
10107   HW2  28.0000  32.3100   6.8800 H     1   SOL   0.4170
10108    OW  39.4600  38.1300  24.2000 O     1   SOL  -0.8340
10109   HW1  39.7500  37.3700  23.6900 H     1   SOL   0.4170
10110   HW2  38.9300  37.7600  24.9100 H     1   SOL   0.4170
10111    OW  25.3200  40.6800  28.7900 O     1   SOL  -0.8340
10112   HW1  25.9300  40.9500  29.4800 H     1   SOL   0.4170
10113   HW2  25.6600  41.0900  27.9900 H     1   SOL   0.4170
10114    OW  30.8200  24.1400  21.5400 O     1   SOL  -0.8340
10115   HW1  31.1300  23.4000  22.0700 H     1   SOL   0.4170
10116   HW2  31.5700  24.3700  21.0000 H     1   SOL   0.4170
10117    OW  22.9100  10.5600   9.3000 O     1   SOL  -0.8340
10118   HW1  22.6100  11.1600   8.6200 H     1   SOL   0.4170
10119   HW2  23.8600  10.5900   9.2500 H     1   SOL   0.4170
10120    OW  27.5900  36.8300   6.6300 O     1   SOL  -0.8340
10121   HW1  27.3600  36.0500   6.1200 H     1   SOL   0.4170
10122   HW2  28.5300  36.7500   6.7800 H     1   SOL   0.4170
10123    OW  19.1200  20.8900  11.3300 O     1   SOL  -0.8340
10124   HW1  18.9400  21.4100  12.1100 H     1   SOL   0.4170
10125   HW2  18.2500  20.7500  10.9300 H     1   SOL   0.4170
10126    OW  34.9800  28.3500  14.3200 O     1   SOL  -0.8340
10127   HW1  35.6100  28.5400  13.6300 H     1   SOL   0.4170
10128   HW2  34.2100  28.0200  13.8500 H     1   SOL   0.4170
10129    OW  34.6700  25.2500   6.6600 O     1   SOL  -0.8340
10130   HW1  35.4100  24.6400   6.6500 H     1   SOL   0.4170
10131   HW2  34.6100  25.5600   5.7500 H     1   SOL   0.4170
10132    OW  27.6900  25.8500  15.4700 O     1   SOL  -0.8340
10133   HW1  27.8200  26.6300  16.0000 H     1   SOL   0.4170
10134   HW2  26.8900  25.4500  15.8000 H     1   SOL   0.4170
10135    OW  26.9200  18.7300  26.6100 O     1   SOL  -0.8340
10136   HW1  26.2100  19.3500  26.4700 H     1   SOL   0.4170
10137   HW2  27.4100  18.7300  25.7800 H     1   SOL   0.4170
10138    OW  23.6100  29.7800  23.1300 O     1   SOL  -0.8340
10139   HW1  22.9300  29.5800  23.7800 H     1   SOL   0.4170
10140   HW2  23.3600  30.6300  22.7800 H     1   SOL   0.4170
10141    OW  28.6400  40.7200  21.6100 O     1   SOL  -0.8340
10142   HW1  29.1600  40.6500  22.4100 H     1   SOL   0.4170
10143   HW2  28.6700  41.6500  21.3900 H     1   SOL   0.4170
10144    OW  39.6400  26.0000  24.8900 O     1   SOL  -0.8340
10145   HW1  39.9900  25.2600  24.4000 H     1   SOL   0.4170
10146   HW2  38.6900  25.9000  24.8300 H     1   SOL   0.4170
10147    OW  34.4500  12.5800  29.4300 O     1   SOL  -0.8340
10148   HW1  34.7800  13.4500  29.6700 H     1   SOL   0.4170
10149   HW2  34.8300  12.4100  28.5600 H     1   SOL   0.4170
10150    OW  32.4200  25.6600  23.6800 O     1   SOL  -0.8340
10151   HW1  31.9700  24.8400  23.8800 H     1   SOL   0.4170
10152   HW2  33.3000  25.4000  23.4300 H     1   SOL   0.4170
10153    OW  30.3000  30.3000  42.2700 O     1   SOL  -0.8340
10154   HW1  29.5900  29.6700  42.2300 H     1   SOL   0.4170
10155   HW2  31.0800  29.8200  41.9900 H     1   SOL   0.4170
10156    OW  14.9900   3.0600  25.6700 O     1   SOL  -0.8340
10157   HW1  15.6200   3.3600  25.0100 H     1   SOL   0.4170
10158   HW2  14.8400   2.1400  25.4600 H     1   SOL   0.4170
10159    OW  29.3100  32.2700  40.4400 O     1   SOL  -0.8340
10160   HW1  29.8300  31.7900  41.0800 H     1   SOL   0.4170
10161   HW2  28.4200  31.9300  40.5500 H     1   SOL   0.4170
10162    OW  27.0700  37.1000  26.7600 O     1   SOL  -0.8340
10163   HW1  27.2500  37.5200  27.6100 H     1   SOL   0.4170
10164   HW2  27.4900  36.2400  26.8300 H     1   SOL   0.4170
10165    OW   0.3600  37.0800  29.7700 O     1   SOL  -0.8340
10166   HW1  -0.1100  36.2500  29.6800 H     1   SOL   0.4170
10167   HW2   0.4700  37.1800  30.7200 H     1   SOL   0.4170
10168    OW  23.2100  24.9600  27.5000 O     1   SOL  -0.8340
10169   HW1  22.9300  25.7100  26.9700 H     1   SOL   0.4170
10170   HW2  24.0900  25.1900  27.8000 H     1   SOL   0.4170
10171    OW  28.7300   6.4800  29.7300 O     1   SOL  -0.8340
10172   HW1  29.2500   7.2400  29.4800 H     1   SOL   0.4170
10173   HW2  29.1800   5.7400  29.3200 H     1   SOL   0.4170
10174    OW  32.7200  18.2200  17.9000 O     1   SOL  -0.8340
10175   HW1  31.8100  18.0500  17.6600 H     1   SOL   0.4170
10176   HW2  32.8200  17.7700  18.7400 H     1   SOL   0.4170
10177    OW  18.3200  20.1000  15.1000 O     1   SOL  -0.8340
10178   HW1  18.7000  19.2900  15.4200 H     1   SOL   0.4170
10179   HW2  19.0700  20.6400  14.8400 H     1   SOL   0.4170
10180    OW  27.5400  41.4200  30.4300 O     1   SOL  -0.8340
10181   HW1  27.5700  41.1300  31.3400 H     1   SOL   0.4170
10182   HW2  28.3100  41.0200  30.0300 H     1   SOL   0.4170
10183    OW  13.0600  30.2600  16.5600 O     1   SOL  -0.8340
10184   HW1  12.8100  30.5500  17.4400 H     1   SOL   0.4170
10185   HW2  12.2400  30.2600  16.0700 H     1   SOL   0.4170
10186    OW  42.9800  16.6400  32.4000 O     1   SOL  -0.8340
10187   HW1  42.8800  15.6900  32.4600 H     1   SOL   0.4170
10188   HW2  42.4000  16.9000  31.6800 H     1   SOL   0.4170
10189    OW  24.2600  28.8500  25.9700 O     1   SOL  -0.8340
10190   HW1  24.3800  28.7900  26.9200 H     1   SOL   0.4170
10191   HW2  24.9000  29.5000  25.6800 H     1   SOL   0.4170
10192    OW  34.0800   6.5300  19.5000 O     1   SOL  -0.8340
10193   HW1  33.3100   7.0700  19.6700 H     1   SOL   0.4170
10194   HW2  34.8000   7.1600  19.4000 H     1   SOL   0.4170
10195    OW  41.7300  17.5700  30.0100 O     1   SOL  -0.8340
10196   HW1  41.1500  17.2900  29.3000 H     1   SOL   0.4170
10197   HW2  42.2500  18.2800  29.6400 H     1   SOL   0.4170
10198    OW  38.7200  16.3100  42.2200 O     1   SOL  -0.8340
10199   HW1  38.3300  16.0400  41.3800 H     1   SOL   0.4170
10200   HW2  39.3700  15.6400  42.4100 H     1   SOL   0.4170
10201    OW  19.6400  23.4500  26.0600 O     1   SOL  -0.8340
10202   HW1  20.1300  24.2300  25.8100 H     1   SOL   0.4170
10203   HW2  18.8300  23.7800  26.4300 H     1   SOL   0.4170
10204    OW   6.9600  34.0300  20.0500 O     1   SOL  -0.8340
10205   HW1   7.6200  33.7000  20.6500 H     1   SOL   0.4170
10206   HW2   6.1400  33.6600  20.3700 H     1   SOL   0.4170
10207    OW  26.5200  23.8000  22.8800 O     1   SOL  -0.8340
10208   HW1  26.6000  24.7500  22.8700 H     1   SOL   0.4170
10209   HW2  25.7000  23.6300  22.4100 H     1   SOL   0.4170
10210    OW  25.2400  19.9000  34.1200 O     1   SOL  -0.8340
10211   HW1  24.3200  19.8800  33.8600 H     1   SOL   0.4170
10212   HW2  25.6500  20.5100  33.4900 H     1   SOL   0.4170
10213    OW   7.6000  39.7700  37.7600 O     1   SOL  -0.8340
10214   HW1   8.0000  40.6100  37.5500 H     1   SOL   0.4170
10215   HW2   8.2300  39.1200  37.4500 H     1   SOL   0.4170
10216    OW   5.4100  31.7200  36.3400 O     1   SOL  -0.8340
10217   HW1   5.3900  31.0900  37.0600 H     1   SOL   0.4170
10218   HW2   5.9300  32.4500  36.6700 H     1   SOL   0.4170
10219    OW  19.4800  13.2800  44.8300 O     1   SOL  -0.8340
10220   HW1  20.3300  13.1000  44.4300 H     1   SOL   0.4170
10221   HW2  19.5000  12.8000  45.6600 H     1   SOL   0.4170
10222    OW  27.8100  21.0100  41.6500 O     1   SOL  -0.8340
10223   HW1  28.5000  20.6500  41.0900 H     1   SOL   0.4170
10224   HW2  27.8000  20.4400  42.4200 H     1   SOL   0.4170
10225    OW  37.2800  30.8000  10.0400 O     1   SOL  -0.8340
10226   HW1  37.5000  31.6200  10.4800 H     1   SOL   0.4170
10227   HW2  38.1300  30.4200   9.8000 H     1   SOL   0.4170
10228    OW  15.7700   0.3400  34.9700 O     1   SOL  -0.8340
10229   HW1  16.4600  -0.2900  34.7400 H     1   SOL   0.4170
10230   HW2  15.6000   0.1800  35.8900 H     1   SOL   0.4170
10231    OW  37.0100  29.3100  19.3000 O     1   SOL  -0.8340
10232   HW1  36.6300  28.9900  18.4900 H     1   SOL   0.4170
10233   HW2  37.2900  30.2000  19.1100 H     1   SOL   0.4170
10234    OW  15.2500  23.1900  28.3300 O     1   SOL  -0.8340
10235   HW1  14.5800  23.6000  28.8800 H     1   SOL   0.4170
10236   HW2  14.9000  23.2500  27.4400 H     1   SOL   0.4170
10237    OW  21.8900  29.0500  28.8600 O     1   SOL  -0.8340
10238   HW1  22.0400  29.9100  29.2700 H     1   SOL   0.4170
10239   HW2  22.6700  28.9200  28.3200 H     1   SOL   0.4170
10240    OW  20.0700  23.0300  34.0600 O     1   SOL  -0.8340
10241   HW1  20.1800  23.7900  34.6400 H     1   SOL   0.4170
10242   HW2  20.9500  22.8600  33.7300 H     1   SOL   0.4170
10243    OW  12.0000  38.3500  34.3800 O     1   SOL  -0.8340
10244   HW1  12.5900  38.1000  33.6700 H     1   SOL   0.4170
10245   HW2  12.4900  38.9800  34.8900 H     1   SOL   0.4170
10246    OW  39.0700  32.5000  37.3700 O     1   SOL  -0.8340
10247   HW1  39.5000  33.2700  36.9800 H     1   SOL   0.4170
10248   HW2  39.1500  31.8300  36.7000 H     1   SOL   0.4170
10249    OW  26.3500  11.6200  13.5200 O     1   SOL  -0.8340
10250   HW1  25.6200  11.2500  13.0200 H     1   SOL   0.4170
10251   HW2  27.0800  11.0300  13.3400 H     1   SOL   0.4170
10252    OW  36.7700  14.8300  27.7900 O     1   SOL  -0.8340
10253   HW1  36.5100  15.3300  28.5600 H     1   SOL   0.4170
10254   HW2  36.1000  15.0300  27.1400 H     1   SOL   0.4170
10255    OW  22.3400  23.4400  36.6500 O     1   SOL  -0.8340
10256   HW1  21.7000  24.1500  36.7300 H     1   SOL   0.4170
10257   HW2  22.8500  23.6700  35.8700 H     1   SOL   0.4170
10258    OW   5.8100   6.0000  31.3100 O     1   SOL  -0.8340
10259   HW1   6.5800   5.6300  30.8700 H     1   SOL   0.4170
10260   HW2   5.6600   6.8300  30.8500 H     1   SOL   0.4170
10261    OW  22.1300  16.0800  40.3700 O     1   SOL  -0.8340
10262   HW1  22.1800  15.7100  41.2500 H     1   SOL   0.4170
10263   HW2  21.5700  16.8500  40.4600 H     1   SOL   0.4170
10264    OW  20.9100  32.7300  22.4100 O     1   SOL  -0.8340
10265   HW1  21.0300  31.8100  22.1600 H     1   SOL   0.4170
10266   HW2  20.2500  33.0500  21.8100 H     1   SOL   0.4170
10267    OW  40.5100   2.7100  31.5000 O     1   SOL  -0.8340
10268   HW1  39.5600   2.7100  31.6200 H     1   SOL   0.4170
10269   HW2  40.6900   3.5200  31.0200 H     1   SOL   0.4170
10270    OW  12.1400  33.8500  14.9000 O     1   SOL  -0.8340
10271   HW1  11.4300  33.8900  14.2600 H     1   SOL   0.4170
10272   HW2  12.2300  34.7500  15.2000 H     1   SOL   0.4170
10273    OW   4.2500  17.0100  26.9800 O     1   SOL  -0.8340
10274   HW1   4.3000  17.7300  26.3500 H     1   SOL   0.4170
10275   HW2   4.1000  16.2300  26.4400 H     1   SOL   0.4170
10276    OW  18.3500  36.1700  20.6200 O     1   SOL  -0.8340
10277   HW1  17.5600  36.4100  20.1300 H     1   SOL   0.4170
10278   HW2  18.2400  35.2400  20.8100 H     1   SOL   0.4170
10279    OW  37.8500  36.7000  34.8800 O     1   SOL  -0.8340
10280   HW1  38.5600  36.1700  34.5100 H     1   SOL   0.4170
10281   HW2  38.1700  37.6000  34.8200 H     1   SOL   0.4170
10282    OW  14.3700  29.8200  27.4900 O     1   SOL  -0.8340
10283   HW1  13.7900  29.6300  26.7400 H     1   SOL   0.4170
10284   HW2  14.0600  29.2400  28.1800 H     1   SOL   0.4170
10285    OW  39.3300  24.7400  41.8800 O     1   SOL  -0.8340
10286   HW1  38.8000  25.1400  42.5600 H     1   SOL   0.4170
10287   HW2  39.4100  23.8300  42.1400 H     1   SOL   0.4170
10288    OW   6.6400  31.9700  47.3900 O     1   SOL  -0.8340
10289   HW1   7.2400  31.3300  47.0200 H     1   SOL   0.4170
10290   HW2   6.7800  31.9100  48.3300 H     1   SOL   0.4170
10291    OW  24.4700   6.6000  27.1100 O     1   SOL  -0.8340
10292   HW1  24.2600   6.5000  28.0400 H     1   SOL   0.4170
10293   HW2  23.7100   7.0500  26.7400 H     1   SOL   0.4170
10294    OW  23.5300  32.9400   6.7200 O     1   SOL  -0.8340
10295   HW1  24.1600  33.5400   6.3200 H     1   SOL   0.4170
10296   HW2  23.3000  33.3500   7.5500 H     1   SOL   0.4170
10297    OW  34.6700  29.5200  26.0300 O     1   SOL  -0.8340
10298   HW1  35.5600  29.5300  25.6800 H     1   SOL   0.4170
10299   HW2  34.1100  29.4400  25.2500 H     1   SOL   0.4170
10300    OW  22.9400  39.1400  25.1500 O     1   SOL  -0.8340
10301   HW1  22.3100  39.7600  25.5200 H     1   SOL   0.4170
10302   HW2  22.4000  38.4800  24.7200 H     1   SOL   0.4170
10303    OW  28.6100  17.9800  33.8900 O     1   SOL  -0.8340
10304   HW1  28.2500  18.4800  34.6200 H     1   SOL   0.4170
10305   HW2  27.8900  17.4100  33.6100 H     1   SOL   0.4170
10306    OW  15.9400  31.2200  39.8000 O     1   SOL  -0.8340
10307   HW1  16.8000  31.1100  40.2200 H     1   SOL   0.4170
10308   HW2  15.3600  31.4600  40.5200 H     1   SOL   0.4170
10309    OW  27.6100   7.4600  33.0800 O     1   SOL  -0.8340
10310   HW1  27.6500   8.4100  33.0500 H     1   SOL   0.4170
10311   HW2  27.2300   7.2100  32.2300 H     1   SOL   0.4170
10312    OW  36.7100  34.0800  36.0400 O     1   SOL  -0.8340
10313   HW1  37.3300  33.7100  36.6700 H     1   SOL   0.4170
10314   HW2  36.8500  35.0300  36.0900 H     1   SOL   0.4170
10315    OW  28.2900  26.2800  25.2000 O     1   SOL  -0.8340
10316   HW1  27.9000  26.9900  24.6900 H     1   SOL   0.4170
10317   HW2  29.2100  26.5300  25.2900 H     1   SOL   0.4170
10318    OW  24.2100  15.9700   9.4500 O     1   SOL  -0.8340
10319   HW1  23.4000  16.0600   9.9500 H     1   SOL   0.4170
10320   HW2  24.5900  15.1400   9.7500 H     1   SOL   0.4170
10321    OW  35.3000  39.3200  19.9300 O     1   SOL  -0.8340
10322   HW1  35.3700  39.6000  20.8400 H     1   SOL   0.4170
10323   HW2  35.1000  40.1200  19.4400 H     1   SOL   0.4170
10324    OW  15.4500  23.9800  10.0600 O     1   SOL  -0.8340
10325   HW1  15.5000  24.9100  10.2600 H     1   SOL   0.4170
10326   HW2  16.3500  23.7300   9.8300 H     1   SOL   0.4170
10327    OW  28.0900  11.4300  28.1900 O     1   SOL  -0.8340
10328   HW1  28.9500  11.1700  28.5200 H     1   SOL   0.4170
10329   HW2  28.0600  12.3800  28.3000 H     1   SOL   0.4170
10330    OW  38.1100  30.1800  31.4900 O     1   SOL  -0.8340
10331   HW1  37.7700  30.6300  30.7200 H     1   SOL   0.4170
10332   HW2  38.7500  29.5500  31.1500 H     1   SOL   0.4170
10333    OW  37.7700  35.6500  11.5500 O     1   SOL  -0.8340
10334   HW1  38.5700  35.5500  12.0700 H     1   SOL   0.4170
10335   HW2  37.9500  36.4000  10.9800 H     1   SOL   0.4170
10336    OW  24.4600  26.9900  23.5500 O     1   SOL  -0.8340
10337   HW1  24.1300  27.7800  23.9700 H     1   SOL   0.4170
10338   HW2  25.3700  27.2000  23.3300 H     1   SOL   0.4170
10339    OW  33.2000  12.2100  32.4800 O     1   SOL  -0.8340
10340   HW1  33.3100  11.5500  33.1700 H     1   SOL   0.4170
10341   HW2  33.9500  12.0800  31.9100 H     1   SOL   0.4170
10342    OW  25.6400  26.6000  52.5100 O     1   SOL  -0.8340
10343   HW1  26.0700  26.8100  51.6800 H     1   SOL   0.4170
10344   HW2  25.5000  27.4500  52.9200 H     1   SOL   0.4170
10345    OW  31.4900  20.0900  24.0700 O     1   SOL  -0.8340
10346   HW1  32.2800  19.5600  23.9800 H     1   SOL   0.4170
10347   HW2  30.8200  19.6000  23.5900 H     1   SOL   0.4170
10348    OW  36.0200  21.3300  19.2600 O     1   SOL  -0.8340
10349   HW1  36.0000  22.2900  19.3000 H     1   SOL   0.4170
10350   HW2  36.2500  21.1400  18.3500 H     1   SOL   0.4170
10351    OW   4.9400  17.4800  31.1600 O     1   SOL  -0.8340
10352   HW1   4.2200  17.6500  31.7600 H     1   SOL   0.4170
10353   HW2   5.0600  16.5300  31.1900 H     1   SOL   0.4170
10354    OW   3.8800   6.1000  21.0100 O     1   SOL  -0.8340
10355   HW1   4.4700   5.4100  21.3200 H     1   SOL   0.4170
10356   HW2   4.4400   6.8800  20.9500 H     1   SOL   0.4170
10357    OW   0.7300  21.0000  20.3300 O     1   SOL  -0.8340
10358   HW1   1.5700  21.2900  19.9600 H     1   SOL   0.4170
10359   HW2   0.6800  20.0700  20.0900 H     1   SOL   0.4170
10360    OW  27.9900   6.9500  16.7200 O     1   SOL  -0.8340
10361   HW1  28.7100   6.9600  16.0900 H     1   SOL   0.4170
10362   HW2  27.4200   7.6800  16.4400 H     1   SOL   0.4170
10363    OW  32.2700  34.1800  33.4400 O     1   SOL  -0.8340
10364   HW1  32.7500  33.7800  34.1600 H     1   SOL   0.4170
10365   HW2  31.6000  34.7200  33.8600 H     1   SOL   0.4170
10366    OW  34.9000  23.3000  21.8000 O     1   SOL  -0.8340
10367   HW1  35.1600  22.4200  22.0700 H     1   SOL   0.4170
10368   HW2  34.6400  23.7300  22.6200 H     1   SOL   0.4170
10369    OW  31.8800   2.1600  29.6000 O     1   SOL  -0.8340
10370   HW1  32.0400   2.5500  30.4600 H     1   SOL   0.4170
10371   HW2  32.6300   2.4300  29.0800 H     1   SOL   0.4170
10372    OW  18.5300  22.9600  13.0100 O     1   SOL  -0.8340
10373   HW1  17.9500  23.4200  13.6000 H     1   SOL   0.4170
10374   HW2  19.3000  22.7500  13.5400 H     1   SOL   0.4170
10375    OW   0.7900   4.0900  46.2900 O     1   SOL  -0.8340
10376   HW1   0.6900   3.1400  46.3100 H     1   SOL   0.4170
10377   HW2   1.2100   4.3000  47.1300 H     1   SOL   0.4170
10378    OW  29.6300  36.3100  18.9400 O     1   SOL  -0.8340
10379   HW1  29.1900  36.7800  19.6500 H     1   SOL   0.4170
10380   HW2  29.7100  35.4100  19.2700 H     1   SOL   0.4170
10381    OW  40.9400  24.1600  23.2200 O     1   SOL  -0.8340
10382   HW1  40.4400  24.7400  22.6400 H     1   SOL   0.4170
10383   HW2  41.8500  24.3200  23.0000 H     1   SOL   0.4170
10384    OW  32.1500  16.8400  20.5300 O     1   SOL  -0.8340
10385   HW1  32.2100  16.5600  21.4500 H     1   SOL   0.4170
10386   HW2  31.2700  17.1800  20.4400 H     1   SOL   0.4170
10387    OW  25.0800  42.3500  35.5100 O     1   SOL  -0.8340
10388   HW1  24.2400  42.2600  35.0700 H     1   SOL   0.4170
10389   HW2  24.8800  42.7900  36.3300 H     1   SOL   0.4170
10390    OW  10.0000  39.9800  21.7400 O     1   SOL  -0.8340
10391   HW1  10.3400  40.7500  21.2700 H     1   SOL   0.4170
10392   HW2   9.1100  39.8700  21.4100 H     1   SOL   0.4170
10393    OW  37.0300  33.1100  33.5100 O     1   SOL  -0.8340
10394   HW1  36.8800  32.1600  33.4900 H     1   SOL   0.4170
10395   HW2  36.5300  33.4200  34.2700 H     1   SOL   0.4170
10396    OW  15.8700  33.1800  21.0900 O     1   SOL  -0.8340
10397   HW1  15.6800  32.2500  21.1700 H     1   SOL   0.4170
10398   HW2  15.5900  33.4100  20.2000 H     1   SOL   0.4170
10399    OW  16.8800  16.9500  27.9200 O     1   SOL  -0.8340
10400   HW1  17.6200  16.8000  28.5000 H     1   SOL   0.4170
10401   HW2  16.1200  16.6600  28.4200 H     1   SOL   0.4170
10402    OW  37.6800  19.1100  33.2200 O     1   SOL  -0.8340
10403   HW1  38.5300  18.9200  32.8300 H     1   SOL   0.4170
10404   HW2  37.8900  19.4700  34.0800 H     1   SOL   0.4170
10405    OW  17.7400  27.0100  35.5300 O     1   SOL  -0.8340
10406   HW1  18.2500  27.8100  35.6800 H     1   SOL   0.4170
10407   HW2  17.2000  27.2100  34.7700 H     1   SOL   0.4170
10408    OW  36.0300  18.2100  21.9500 O     1   SOL  -0.8340
10409   HW1  35.8100  17.8300  21.1000 H     1   SOL   0.4170
10410   HW2  36.5900  18.9600  21.7400 H     1   SOL   0.4170
10411    OW  37.0500  25.7400  24.3500 O     1   SOL  -0.8340
10412   HW1  36.4100  25.0300  24.4400 H     1   SOL   0.4170
10413   HW2  36.7300  26.2600  23.6200 H     1   SOL   0.4170
10414    OW  29.9400  34.7600  24.3500 O     1   SOL  -0.8340
10415   HW1  29.2700  34.7100  25.0300 H     1   SOL   0.4170
10416   HW2  30.7200  35.0600  24.8100 H     1   SOL   0.4170
10417    OW  31.5500   0.8700  11.5500 O     1   SOL  -0.8340
10418   HW1  31.1400   0.1000  11.1600 H     1   SOL   0.4170
10419   HW2  30.8300   1.4900  11.6700 H     1   SOL   0.4170
10420    OW  24.2400   2.4900  35.5800 O     1   SOL  -0.8340
10421   HW1  23.7300   2.2100  34.8300 H     1   SOL   0.4170
10422   HW2  25.1400   2.5200  35.2600 H     1   SOL   0.4170
10423    OW  17.0500   8.4400  37.3900 O     1   SOL  -0.8340
10424   HW1  17.0300   9.3600  37.6500 H     1   SOL   0.4170
10425   HW2  17.9000   8.1200  37.7100 H     1   SOL   0.4170
10426    OW  33.5800  20.3300  28.2200 O     1   SOL  -0.8340
10427   HW1  34.4200  19.9700  28.5000 H     1   SOL   0.4170
10428   HW2  32.9300  19.8800  28.7700 H     1   SOL   0.4170
10429    OW  15.4000  37.4900  41.3700 O     1   SOL  -0.8340
10430   HW1  16.0400  37.8200  40.7400 H     1   SOL   0.4170
10431   HW2  15.4000  36.5400  41.2400 H     1   SOL   0.4170
10432    OW  32.2600   5.8100  36.7400 O     1   SOL  -0.8340
10433   HW1  32.9300   5.1900  36.4300 H     1   SOL   0.4170
10434   HW2  31.4300   5.4200  36.4700 H     1   SOL   0.4170
10435    OW  18.0700  27.2100  21.5800 O     1   SOL  -0.8340
10436   HW1  17.9100  27.9200  22.2000 H     1   SOL   0.4170
10437   HW2  17.3000  27.2200  21.0000 H     1   SOL   0.4170
10438    OW  34.0400  33.6300  25.0700 O     1   SOL  -0.8340
10439   HW1  33.1600  33.3300  25.2700 H     1   SOL   0.4170
10440   HW2  34.5800  33.2700  25.7800 H     1   SOL   0.4170
10441    OW  10.7800  20.3500  23.8700 O     1   SOL  -0.8340
10442   HW1  10.5200  20.4800  22.9600 H     1   SOL   0.4170
10443   HW2  11.4500  19.6600  23.8400 H     1   SOL   0.4170
10444    OW  20.9500  30.3100  36.7900 O     1   SOL  -0.8340
10445   HW1  20.6500  29.6700  36.1500 H     1   SOL   0.4170
10446   HW2  21.8600  30.5000  36.5400 H     1   SOL   0.4170
10447    OW  17.5600  24.8500  30.9200 O     1   SOL  -0.8340
10448   HW1  17.6000  24.0600  31.4500 H     1   SOL   0.4170
10449   HW2  18.0000  25.5200  31.4500 H     1   SOL   0.4170
10450    OW   7.9700   8.5400  27.3600 O     1   SOL  -0.8340
10451   HW1   7.9500   8.5800  28.3200 H     1   SOL   0.4170
10452   HW2   7.6300   7.6700  27.1500 H     1   SOL   0.4170
10453    OW  18.8100   5.5700  28.0400 O     1   SOL  -0.8340
10454   HW1  18.3500   4.9900  28.6500 H     1   SOL   0.4170
10455   HW2  18.2900   6.3800  28.0400 H     1   SOL   0.4170
10456    OW  15.7400  19.6100  11.1200 O     1   SOL  -0.8340
10457   HW1  15.5300  19.9200  12.0000 H     1   SOL   0.4170
10458   HW2  15.1300  20.0800  10.5500 H     1   SOL   0.4170
10459    OW  18.2300  25.6500  23.8600 O     1   SOL  -0.8340
10460   HW1  18.3000  26.3000  23.1600 H     1   SOL   0.4170
10461   HW2  17.8500  26.1400  24.5900 H     1   SOL   0.4170
10462    OW  17.9400  26.9800  58.9200 O     1   SOL  -0.8340
10463   HW1  18.8800  27.1300  58.9400 H     1   SOL   0.4170
10464   HW2  17.6500  27.3500  58.0900 H     1   SOL   0.4170
10465    OW  41.0600  36.8200  34.2700 O     1   SOL  -0.8340
10466   HW1  40.5400  37.5600  34.5700 H     1   SOL   0.4170
10467   HW2  40.4400  36.2600  33.8000 H     1   SOL   0.4170
10468    OW  26.3000  32.8000  27.1900 O     1   SOL  -0.8340
10469   HW1  25.4300  32.4400  27.0000 H     1   SOL   0.4170
10470   HW2  26.9000  32.0800  27.0000 H     1   SOL   0.4170
10471    OW  19.5000  27.8500  29.1400 O     1   SOL  -0.8340
10472   HW1  20.2200  28.4700  29.1800 H     1   SOL   0.4170
10473   HW2  18.9200  28.1900  28.4600 H     1   SOL   0.4170
10474    OW  11.5400   6.5300  36.3700 O     1   SOL  -0.8340
10475   HW1  10.7400   6.8700  36.7700 H     1   SOL   0.4170
10476   HW2  12.2100   7.1700  36.6000 H     1   SOL   0.4170
10477    OW  37.9200  35.1600  40.9900 O     1   SOL  -0.8340
10478   HW1  37.8400  34.3800  40.4500 H     1   SOL   0.4170
10479   HW2  38.6500  34.9700  41.5800 H     1   SOL   0.4170
10480    OW   5.8600  32.5800   9.2800 O     1   SOL  -0.8340
10481   HW1   5.2200  31.8700   9.2000 H     1   SOL   0.4170
10482   HW2   5.3500  33.3800   9.2500 H     1   SOL   0.4170
10483    OW  21.0200  30.1500  25.0000 O     1   SOL  -0.8340
10484   HW1  20.5500  29.3500  25.2400 H     1   SOL   0.4170
10485   HW2  20.5300  30.8600  25.4300 H     1   SOL   0.4170
10486    OW  30.4200  36.7400  53.8100 O     1   SOL  -0.8340
10487   HW1  31.0300  37.4100  54.0900 H     1   SOL   0.4170
10488   HW2  30.1600  37.0100  52.9300 H     1   SOL   0.4170
10489    OW  30.1100  33.5800  19.8400 O     1   SOL  -0.8340
10490   HW1  29.5000  33.6300  20.5800 H     1   SOL   0.4170
10491   HW2  30.9700  33.5400  20.2500 H     1   SOL   0.4170
10492    OW  26.2500  30.0900  23.8900 O     1   SOL  -0.8340
10493   HW1  25.3700  29.9700  23.5300 H     1   SOL   0.4170
10494   HW2  26.5900  30.8700  23.4600 H     1   SOL   0.4170
10495    OW  24.1600  31.4600  37.5800 O     1   SOL  -0.8340
10496   HW1  23.6000  31.3900  38.3600 H     1   SOL   0.4170
10497   HW2  23.7100  32.1000  37.0300 H     1   SOL   0.4170
10498    OW  27.8100   2.7700  20.9600 O     1   SOL  -0.8340
10499   HW1  26.9500   3.1300  21.2100 H     1   SOL   0.4170
10500   HW2  28.4100   3.5100  21.0600 H     1   SOL   0.4170
10501    OW  31.0500  28.0600  24.0200 O     1   SOL  -0.8340
10502   HW1  31.6300  27.3200  23.8500 H     1   SOL   0.4170
10503   HW2  30.1900  27.7500  23.7500 H     1   SOL   0.4170
10504    OW  15.0700  17.5900  19.9500 O     1   SOL  -0.8340
10505   HW1  15.5500  18.2500  20.4600 H     1   SOL   0.4170
10506   HW2  14.6900  18.0800  19.2200 H     1   SOL   0.4170
10507    OW  27.0500  38.2100  14.5300 O     1   SOL  -0.8340
10508   HW1  27.2700  38.2900  15.4600 H     1   SOL   0.4170
10509   HW2  26.1700  37.8300  14.5200 H     1   SOL   0.4170
10510    OW  13.3400  29.6900  32.8700 O     1   SOL  -0.8340
10511   HW1  13.7400  28.9400  33.3200 H     1   SOL   0.4170
10512   HW2  12.5000  29.3600  32.5700 H     1   SOL   0.4170
10513    OW  39.4800  32.6400  27.1400 O     1   SOL  -0.8340
10514   HW1  40.4100  32.4200  27.1600 H     1   SOL   0.4170
10515   HW2  39.4300  33.5100  27.5300 H     1   SOL   0.4170
10516    OW  37.6000  30.6000  27.3200 O     1   SOL  -0.8340
10517   HW1  37.4000  30.6800  26.3800 H     1   SOL   0.4170
10518   HW2  38.2600  31.2800  27.4700 H     1   SOL   0.4170
10519    OW  17.9400  14.2700  36.4700 O     1   SOL  -0.8340
10520   HW1  17.2500  14.0100  37.0800 H     1   SOL   0.4170
10521   HW2  18.6900  14.4600  37.0300 H     1   SOL   0.4170
10522    OW  42.9400  41.0700  24.2600 O     1   SOL  -0.8340
10523   HW1  43.1000  40.1200  24.2500 H     1   SOL   0.4170
10524   HW2  41.9900  41.1500  24.3300 H     1   SOL   0.4170
10525    OW  14.0500  34.8800  22.6000 O     1   SOL  -0.8340
10526   HW1  13.2400  34.7000  22.1200 H     1   SOL   0.4170
10527   HW2  14.7300  34.4400  22.0900 H     1   SOL   0.4170
10528    OW  40.9900  25.2700  14.8500 O     1   SOL  -0.8340
10529   HW1  40.6700  24.3700  14.8500 H     1   SOL   0.4170
10530   HW2  40.2500  25.8000  14.5500 H     1   SOL   0.4170
10531    OW  14.7900  18.7100  34.8900 O     1   SOL  -0.8340
10532   HW1  15.6000  18.2800  34.6200 H     1   SOL   0.4170
10533   HW2  14.1100  18.0700  34.7200 H     1   SOL   0.4170
10534    OW  42.1700   7.3200  21.1300 O     1   SOL  -0.8340
10535   HW1  41.3500   7.4700  21.6000 H     1   SOL   0.4170
10536   HW2  41.9900   6.5600  20.5600 H     1   SOL   0.4170
10537    OW   5.9600  41.8300  28.9100 O     1   SOL  -0.8340
10538   HW1   6.3900  41.5200  28.1200 H     1   SOL   0.4170
10539   HW2   6.2400  41.2200  29.5900 H     1   SOL   0.4170
10540    OW  25.7900  41.6800  26.1900 O     1   SOL  -0.8340
10541   HW1  26.1800  40.8100  26.1100 H     1   SOL   0.4170
10542   HW2  24.8600  41.5500  26.0700 H     1   SOL   0.4170
10543    OW  27.3900   3.9500  13.6700 O     1   SOL  -0.8340
10544   HW1  28.0700   3.2900  13.7500 H     1   SOL   0.4170
10545   HW2  26.6900   3.6500  14.2600 H     1   SOL   0.4170
10546    OW  28.8500  38.0100  12.4300 O     1   SOL  -0.8340
10547   HW1  28.1300  38.3200  12.9800 H     1   SOL   0.4170
10548   HW2  29.5400  38.6600  12.5700 H     1   SOL   0.4170
10549    OW  29.7700   3.8600  28.5700 O     1   SOL  -0.8340
10550   HW1  28.9600   3.8200  28.0500 H     1   SOL   0.4170
10551   HW2  30.0000   2.9500  28.7200 H     1   SOL   0.4170
10552    OW  41.5700  30.8500  39.2200 O     1   SOL  -0.8340
10553   HW1  41.5800  31.6100  39.8000 H     1   SOL   0.4170
10554   HW2  41.0700  31.1400  38.4600 H     1   SOL   0.4170
10555    OW  40.5500  38.1100  37.3200 O     1   SOL  -0.8340
10556   HW1  40.3400  37.3700  37.8900 H     1   SOL   0.4170
10557   HW2  41.5000  38.0600  37.2200 H     1   SOL   0.4170
10558    OW  19.8500  29.0100  34.4500 O     1   SOL  -0.8340
10559   HW1  20.2400  29.7100  33.9300 H     1   SOL   0.4170
10560   HW2  19.5400  28.3700  33.8100 H     1   SOL   0.4170
10561    OW  31.1600  42.6900  31.0300 O     1   SOL  -0.8340
10562   HW1  31.3400  42.5900  31.9700 H     1   SOL   0.4170
10563   HW2  31.1700  43.6400  30.8900 H     1   SOL   0.4170
10564    OW  41.7000   4.6700  30.0900 O     1   SOL  -0.8340
10565   HW1  42.3500   4.7300  29.3900 H     1   SOL   0.4170
10566   HW2  41.0500   5.3500  29.8800 H     1   SOL   0.4170
10567    OW  22.3100  40.7300  41.9600 O     1   SOL  -0.8340
10568   HW1  22.4400  39.8000  42.1400 H     1   SOL   0.4170
10569   HW2  23.1900  41.0800  41.8500 H     1   SOL   0.4170
10570    OW  36.6200  11.6800  23.7100 O     1   SOL  -0.8340
10571   HW1  35.8600  11.1300  23.9100 H     1   SOL   0.4170
10572   HW2  36.3200  12.5800  23.8400 H     1   SOL   0.4170
10573    OW  28.4000  34.3400  26.6600 O     1   SOL  -0.8340
10574   HW1  28.7500  34.4200  27.5500 H     1   SOL   0.4170
10575   HW2  27.5400  33.9500  26.7700 H     1   SOL   0.4170
10576    OW  28.4300   0.5500  27.1600 O     1   SOL  -0.8340
10577   HW1  29.0700  -0.0400  27.5700 H     1   SOL   0.4170
10578   HW2  28.0300   0.0300  26.4700 H     1   SOL   0.4170
10579    OW  22.6500  36.0400  17.1400 O     1   SOL  -0.8340
10580   HW1  21.9400  36.3500  17.7000 H     1   SOL   0.4170
10581   HW2  23.2900  35.6700  17.7500 H     1   SOL   0.4170
10582    OW  23.7800  38.5700  31.9900 O     1   SOL  -0.8340
10583   HW1  23.2600  38.7000  32.7800 H     1   SOL   0.4170
10584   HW2  23.1600  38.2600  31.3400 H     1   SOL   0.4170
10585    OW   5.3300  35.6300  32.0600 O     1   SOL  -0.8340
10586   HW1   5.0800  36.5500  31.9300 H     1   SOL   0.4170
10587   HW2   5.6000  35.5700  32.9700 H     1   SOL   0.4170
10588    OW  29.2600  15.4500  31.8400 O     1   SOL  -0.8340
10589   HW1  28.3300  15.2800  31.9400 H     1   SOL   0.4170
10590   HW2  29.4500  16.1500  32.4700 H     1   SOL   0.4170
10591    OW  21.5400  33.5200  28.3400 O     1   SOL  -0.8340
10592   HW1  22.2200  34.1900  28.2600 H     1   SOL   0.4170
10593   HW2  20.7200  34.0100  28.3200 H     1   SOL   0.4170
10594    OW  33.4000  36.0200  21.9700 O     1   SOL  -0.8340
10595   HW1  32.9700  36.4800  22.6900 H     1   SOL   0.4170
10596   HW2  33.1700  36.5300  21.1900 H     1   SOL   0.4170
10597    OW  28.6900  29.1400  29.6000 O     1   SOL  -0.8340
10598   HW1  28.5300  28.2800  30.0000 H     1   SOL   0.4170
10599   HW2  28.8300  29.7200  30.3500 H     1   SOL   0.4170
10600    OW  24.1800  30.5000   9.9400 O     1   SOL  -0.8340
10601   HW1  24.0800  30.5100   8.9900 H     1   SOL   0.4170
10602   HW2  23.7700  29.6800  10.2200 H     1   SOL   0.4170
10603    OW  15.9800  11.7300  30.3900 O     1   SOL  -0.8340
10604   HW1  16.1500  10.8200  30.6300 H     1   SOL   0.4170
10605   HW2  16.8300  12.1600  30.4900 H     1   SOL   0.4170
10606    OW  26.9000  39.3300  32.6200 O     1   SOL  -0.8340
10607   HW1  25.9900  39.0500  32.5200 H     1   SOL   0.4170
10608   HW2  27.4200  38.5900  32.3000 H     1   SOL   0.4170
10609    OW  18.8400  13.0600  12.7500 O     1   SOL  -0.8340
10610   HW1  17.9500  13.4100  12.8500 H     1   SOL   0.4170
10611   HW2  19.2900  13.7200  12.2100 H     1   SOL   0.4170
10612    OW  22.4900  21.5600  32.4500 O     1   SOL  -0.8340
10613   HW1  21.5900  21.2400  32.3500 H     1   SOL   0.4170
10614   HW2  22.9800  20.8000  32.7700 H     1   SOL   0.4170
10615    OW  33.8300  41.9600  20.7000 O     1   SOL  -0.8340
10616   HW1  33.1100  42.5200  20.9900 H     1   SOL   0.4170
10617   HW2  34.6000  42.5300  20.7400 H     1   SOL   0.4170
10618    OW  10.3600  23.5000  43.4700 O     1   SOL  -0.8340
10619   HW1  10.1100  22.6000  43.2900 H     1   SOL   0.4170
10620   HW2  10.3300  23.9300  42.6100 H     1   SOL   0.4170
10621    OW  19.9600  17.9200  40.6100 O     1   SOL  -0.8340
10622   HW1  19.0600  18.1400  40.8300 H     1   SOL   0.4170
10623   HW2  19.9700  17.8100  39.6600 H     1   SOL   0.4170
10624    OW  33.0500   9.6600  48.0300 O     1   SOL  -0.8340
10625   HW1  33.5900  10.2600  48.5400 H     1   SOL   0.4170
10626   HW2  32.6400  10.2000  47.3600 H     1   SOL   0.4170
10627    OW  26.1900  38.7400  46.0300 O     1   SOL  -0.8340
10628   HW1  25.4600  39.3400  46.2200 H     1   SOL   0.4170
10629   HW2  26.3000  38.8000  45.0800 H     1   SOL   0.4170
10630    OW  35.2400  20.8700  46.9200 O     1   SOL  -0.8340
10631   HW1  34.5900  20.2100  46.6900 H     1   SOL   0.4170
10632   HW2  36.0800  20.4300  46.8400 H     1   SOL   0.4170
10633    OW  23.5900  35.5500  27.9400 O     1   SOL  -0.8340
10634   HW1  23.7000  35.6200  26.9900 H     1   SOL   0.4170
10635   HW2  24.1900  36.2200  28.3000 H     1   SOL   0.4170
10636    OW  28.7300   0.5100  49.6300 O     1   SOL  -0.8340
10637   HW1  27.8300   0.3000  49.3900 H     1   SOL   0.4170
10638   HW2  29.2300   0.3800  48.8300 H     1   SOL   0.4170
10639    OW  16.6700  36.3100  47.1700 O     1   SOL  -0.8340
10640   HW1  15.7900  35.9800  47.3600 H     1   SOL   0.4170
10641   HW2  17.2100  35.9800  47.8900 H     1   SOL   0.4170
10642    OW  31.7900   4.0100  50.8700 O     1   SOL  -0.8340
10643   HW1  30.9900   4.5200  51.0200 H     1   SOL   0.4170
10644   HW2  32.0700   3.7600  51.7500 H     1   SOL   0.4170
10645    OW  20.8900  19.1000  31.0500 O     1   SOL  -0.8340
10646   HW1  21.6300  19.3900  30.5200 H     1   SOL   0.4170
10647   HW2  20.1700  19.6700  30.7900 H     1   SOL   0.4170
10648    OW  32.5800  41.0500  47.1200 O     1   SOL  -0.8340
10649   HW1  33.4700  41.0100  46.7700 H     1   SOL   0.4170
10650   HW2  32.0200  40.9400  46.3500 H     1   SOL   0.4170
10651    OW  22.6700  31.4200  29.8700 O     1   SOL  -0.8340
10652   HW1  23.5900  31.6100  29.7300 H     1   SOL   0.4170
10653   HW2  22.2100  32.0600  29.3200 H     1   SOL   0.4170
10654    OW  20.9500  34.0600  40.9500 O     1   SOL  -0.8340
10655   HW1  20.4800  34.4700  40.2300 H     1   SOL   0.4170
10656   HW2  21.6700  34.6700  41.1400 H     1   SOL   0.4170
10657    OW  27.5000  37.8600  29.5700 O     1   SOL  -0.8340
10658   HW1  27.2800  37.6600  30.4800 H     1   SOL   0.4170
10659   HW2  28.3200  38.3600  29.6200 H     1   SOL   0.4170
10660    OW  18.1600  19.3900  44.7100 O     1   SOL  -0.8340
10661   HW1  17.9700  18.5900  45.1900 H     1   SOL   0.4170
10662   HW2  17.8300  19.2200  43.8300 H     1   SOL   0.4170
10663    OW  21.7200  22.2500  51.7000 O     1   SOL  -0.8340
10664   HW1  22.3100  21.6800  52.1900 H     1   SOL   0.4170
10665   HW2  22.2800  22.9500  51.3700 H     1   SOL   0.4170
10666    OW  11.0000  30.3500  30.9400 O     1   SOL  -0.8340
10667   HW1  11.1000  30.7100  30.0600 H     1   SOL   0.4170
10668   HW2  11.0000  31.1200  31.5100 H     1   SOL   0.4170
10669    OW  36.3900   5.3900  55.6500 O     1   SOL  -0.8340
10670   HW1  36.9800   6.0100  55.2300 H     1   SOL   0.4170
10671   HW2  36.9600   4.7400  56.0600 H     1   SOL   0.4170
10672    OW   3.1200  28.3100  39.7000 O     1   SOL  -0.8340
10673   HW1   2.4400  27.6700  39.9000 H     1   SOL   0.4170
10674   HW2   2.9500  29.0400  40.2900 H     1   SOL   0.4170
10675    OW  21.9100  24.2600  32.0000 O     1   SOL  -0.8340
10676   HW1  21.5500  23.4300  31.7100 H     1   SOL   0.4170
10677   HW2  21.6800  24.8800  31.3100 H     1   SOL   0.4170
10678    OW  29.8700  16.5500  51.7200 O     1   SOL  -0.8340
10679   HW1  30.7500  16.1800  51.6900 H     1   SOL   0.4170
10680   HW2  29.7300  16.7900  52.6400 H     1   SOL   0.4170
10681    OW  18.1700  17.4200  54.8200 O     1   SOL  -0.8340
10682   HW1  18.7800  17.6100  55.5300 H     1   SOL   0.4170
10683   HW2  17.5600  16.7800  55.1900 H     1   SOL   0.4170
10684    OW  33.9400  33.8100  35.5800 O     1   SOL  -0.8340
10685   HW1  34.8700  33.9600  35.7700 H     1   SOL   0.4170
10686   HW2  33.8000  32.8800  35.7900 H     1   SOL   0.4170
10687    OW  33.1200  33.8300  55.8300 O     1   SOL  -0.8340
10688   HW1  33.4700  33.5000  56.6500 H     1   SOL   0.4170
10689   HW2  33.4200  33.2100  55.1700 H     1   SOL   0.4170
10690    OW  36.8400  32.6100  54.3400 O     1   SOL  -0.8340
10691   HW1  36.6000  32.9400  53.4800 H     1   SOL   0.4170
10692   HW2  36.3300  31.8000  54.4400 H     1   SOL   0.4170
10693    OW  18.5800  35.6300  50.4700 O     1   SOL  -0.8340
10694   HW1  18.1500  36.3200  50.9800 H     1   SOL   0.4170
10695   HW2  18.1000  34.8300  50.6900 H     1   SOL   0.4170
10696    OW  16.9600  28.9100  53.8300 O     1   SOL  -0.8340
10697   HW1  17.4400  29.7100  54.0500 H     1   SOL   0.4170
10698   HW2  17.5300  28.4600  53.2000 H     1   SOL   0.4170
10699    OW   7.9700  17.3300  25.4100 O     1   SOL  -0.8340
10700   HW1   8.8000  16.9600  25.1000 H     1   SOL   0.4170
10701   HW2   7.3700  16.5900  25.4300 H     1   SOL   0.4170
10702    OW  29.0200  28.5100  55.4600 O     1   SOL  -0.8340
10703   HW1  29.2200  29.0800  56.2000 H     1   SOL   0.4170
10704   HW2  29.8400  28.4400  54.9800 H     1   SOL   0.4170
10705    OW  35.9000  30.0500  60.1000 O     1   SOL  -0.8340
10706   HW1  36.0100  31.0000  60.1500 H     1   SOL   0.4170
10707   HW2  36.7800  29.6900  60.2100 H     1   SOL   0.4170
10708    OW  32.8300  33.5700  28.2600 O     1   SOL  -0.8340
10709   HW1  32.9000  32.6300  28.4100 H     1   SOL   0.4170
10710   HW2  32.2500  33.8800  28.9600 H     1   SOL   0.4170
10711    OW  35.9300  21.3200  58.2800 O     1   SOL  -0.8340
10712   HW1  36.6300  20.8300  58.7300 H     1   SOL   0.4170
10713   HW2  36.3200  22.1800  58.1100 H     1   SOL   0.4170
10714    OW  38.9200  24.4900  52.5800 O     1   SOL  -0.8340
10715   HW1  39.5900  25.1600  52.7000 H     1   SOL   0.4170
10716   HW2  38.1200  24.9900  52.4000 H     1   SOL   0.4170
10717    OW  40.2800   2.9200  50.7900 O     1   SOL  -0.8340
10718   HW1  39.6600   2.6600  50.1100 H     1   SOL   0.4170
10719   HW2  41.1300   2.9200  50.3500 H     1   SOL   0.4170
10720    OW  14.7700  36.2400  33.7900 O     1   SOL  -0.8340
10721   HW1  14.4900  35.6800  34.5000 H     1   SOL   0.4170
10722   HW2  15.7000  36.0400  33.6800 H     1   SOL   0.4170
10723    OW   4.8900  34.2200  48.1400 O     1   SOL  -0.8340
10724   HW1   5.1200  33.4600  47.5900 H     1   SOL   0.4170
10725   HW2   4.0200  34.4700  47.8400 H     1   SOL   0.4170
10726    OW  34.6500  32.3400  38.6400 O     1   SOL  -0.8340
10727   HW1  34.5000  33.2800  38.7800 H     1   SOL   0.4170
10728   HW2  35.4700  32.1600  39.1100 H     1   SOL   0.4170
10729    OW  39.9500   7.6300  44.1000 O     1   SOL  -0.8340
10730   HW1  40.0800   7.5800  45.0500 H     1   SOL   0.4170
10731   HW2  39.1500   8.1500  44.0000 H     1   SOL   0.4170
10732    OW  32.0800  13.1300  53.1400 O     1   SOL  -0.8340
10733   HW1  32.9000  12.6300  53.0800 H     1   SOL   0.4170
10734   HW2  31.4000  12.4600  53.1100 H     1   SOL   0.4170
10735    OW  28.4500  26.6400  30.4600 O     1   SOL  -0.8340
10736   HW1  29.3000  26.2000  30.4300 H     1   SOL   0.4170
10737   HW2  27.8400  26.0000  30.0800 H     1   SOL   0.4170
10738    OW  14.1300  40.2400  32.0700 O     1   SOL  -0.8340
10739   HW1  14.1800  39.2900  32.0000 H     1   SOL   0.4170
10740   HW2  13.2700  40.4500  31.7100 H     1   SOL   0.4170
10741    OW  35.1600  30.9500  44.8600 O     1   SOL  -0.8340
10742   HW1  34.8000  31.5300  44.1900 H     1   SOL   0.4170
10743   HW2  34.4000  30.4800  45.2000 H     1   SOL   0.4170
10744    OW  36.9500   1.9500  53.8500 O     1   SOL  -0.8340
10745   HW1  37.4000   1.6600  54.6400 H     1   SOL   0.4170
10746   HW2  37.6300   2.3900  53.3400 H     1   SOL   0.4170
10747    OW  27.0500  28.0500  17.2700 O     1   SOL  -0.8340
10748   HW1  26.2600  27.5100  17.3400 H     1   SOL   0.4170
10749   HW2  27.7000  27.6000  17.8000 H     1   SOL   0.4170
10750    OW  29.6800  22.3800  28.4900 O     1   SOL  -0.8340
10751   HW1  30.5700  22.4500  28.1400 H     1   SOL   0.4170
10752   HW2  29.1600  22.0300  27.7600 H     1   SOL   0.4170
10753    OW  16.4700   4.0800  47.4900 O     1   SOL  -0.8340
10754   HW1  15.9500   4.1400  48.3000 H     1   SOL   0.4170
10755   HW2  15.9900   4.6200  46.8600 H     1   SOL   0.4170
10756    OW  36.1500   7.7700  35.9200 O     1   SOL  -0.8340
10757   HW1  36.8100   7.2100  35.5200 H     1   SOL   0.4170
10758   HW2  35.3600   7.2400  35.9500 H     1   SOL   0.4170
10759    OW  40.4700   8.0300  41.3100 O     1   SOL  -0.8340
10760   HW1  40.4700   7.6600  42.1900 H     1   SOL   0.4170
10761   HW2  40.2600   7.3000  40.7300 H     1   SOL   0.4170
10762    OW  28.1900  27.4000  22.6100 O     1   SOL  -0.8340
10763   HW1  27.7000  28.1700  22.3200 H     1   SOL   0.4170
10764   HW2  28.2400  26.8400  21.8400 H     1   SOL   0.4170
10765    OW  26.8300  25.4400  35.7400 O     1   SOL  -0.8340
10766   HW1  26.7900  25.5700  34.7900 H     1   SOL   0.4170
10767   HW2  26.2600  26.1200  36.1000 H     1   SOL   0.4170
10768    OW  19.8700  15.2800  38.1900 O     1   SOL  -0.8340
10769   HW1  20.7300  15.2100  38.6000 H     1   SOL   0.4170
10770   HW2  19.6800  16.2100  38.1800 H     1   SOL   0.4170
10771    OW  34.4300   6.6600  58.9100 O     1   SOL  -0.8340
10772   HW1  34.7300   5.7500  58.8700 H     1   SOL   0.4170
10773   HW2  35.0600   7.1400  58.3700 H     1   SOL   0.4170
10774    OW  37.0600  13.4500  46.9100 O     1   SOL  -0.8340
10775   HW1  37.2300  14.0900  47.6000 H     1   SOL   0.4170
10776   HW2  36.1400  13.2200  47.0300 H     1   SOL   0.4170
10777    OW  41.7100   9.8400  49.9900 O     1   SOL  -0.8340
10778   HW1  41.4800  10.5000  49.3300 H     1   SOL   0.4170
10779   HW2  41.8700  10.3400  50.7900 H     1   SOL   0.4170
10780    OW  30.9800   2.0800  49.1600 O     1   SOL  -0.8340
10781   HW1  31.1400   2.8600  49.6900 H     1   SOL   0.4170
10782   HW2  30.1500   1.7400  49.4900 H     1   SOL   0.4170
10783    OW  41.0200  29.0600  45.4900 O     1   SOL  -0.8340
10784   HW1  40.4200  28.7400  44.8200 H     1   SOL   0.4170
10785   HW2  40.9100  28.4600  46.2300 H     1   SOL   0.4170
10786    OW  24.2600  16.8500  53.2400 O     1   SOL  -0.8340
10787   HW1  24.9200  16.2100  52.9800 H     1   SOL   0.4170
10788   HW2  23.6600  16.8900  52.5000 H     1   SOL   0.4170
10789    OW  20.6500  29.8900  42.0400 O     1   SOL  -0.8340
10790   HW1  20.3200  29.2500  42.6700 H     1   SOL   0.4170
10791   HW2  21.1500  29.3700  41.4000 H     1   SOL   0.4170
10792    OW  39.8200   6.9800  29.3000 O     1   SOL  -0.8340
10793   HW1  40.6800   7.3600  29.4900 H     1   SOL   0.4170
10794   HW2  39.4800   7.5100  28.5800 H     1   SOL   0.4170
10795    OW  27.2000  28.3700  39.2700 O     1   SOL  -0.8340
10796   HW1  27.0200  28.5200  38.3400 H     1   SOL   0.4170
10797   HW2  28.1600  28.3700  39.3300 H     1   SOL   0.4170
10798    OW  30.8000   2.3300  59.7000 O     1   SOL  -0.8340
10799   HW1  31.2500   1.5400  59.4000 H     1   SOL   0.4170
10800   HW2  30.0500   2.4200  59.1100 H     1   SOL   0.4170
10801    OW  26.2500  12.4000  51.2000 O     1   SOL  -0.8340
10802   HW1  26.4900  11.4800  51.3100 H     1   SOL   0.4170
10803   HW2  25.4000  12.3800  50.7700 H     1   SOL   0.4170
10804    OW  22.4700  31.2300  43.9300 O     1   SOL  -0.8340
10805   HW1  23.3200  30.9500  43.6000 H     1   SOL   0.4170
10806   HW2  21.8600  31.0400  43.2200 H     1   SOL   0.4170
10807    OW  33.3500  37.8200  43.9600 O     1   SOL  -0.8340
10808   HW1  33.4900  38.7500  44.1400 H     1   SOL   0.4170
10809   HW2  34.2300  37.4400  43.9600 H     1   SOL   0.4170
10810    OW   0.0300  15.9500  37.7300 O     1   SOL  -0.8340
10811   HW1   0.3600  15.1600  38.1700 H     1   SOL   0.4170
10812   HW2   0.3100  15.8400  36.8200 H     1   SOL   0.4170
10813    OW  23.3300  33.7300  36.0100 O     1   SOL  -0.8340
10814   HW1  22.9400  34.2700  35.3100 H     1   SOL   0.4170
10815   HW2  24.1900  34.1200  36.1600 H     1   SOL   0.4170
10816    OW  11.0900  37.4000  47.6700 O     1   SOL  -0.8340
10817   HW1  10.9000  37.9500  46.9200 H     1   SOL   0.4170
10818   HW2  10.5800  37.7800  48.3900 H     1   SOL   0.4170
10819    OW  19.6600  16.8000  35.3600 O     1   SOL  -0.8340
10820   HW1  19.4400  17.3300  36.1300 H     1   SOL   0.4170
10821   HW2  19.5600  17.4000  34.6200 H     1   SOL   0.4170
10822    OW  27.0000  19.3300  36.0200 O     1   SOL  -0.8340
10823   HW1  26.5900  19.6000  35.2000 H     1   SOL   0.4170
10824   HW2  26.2600  19.1700  36.6100 H     1   SOL   0.4170
10825    OW   2.4800  32.8900  59.5300 O     1   SOL  -0.8340
10826   HW1   2.0800  32.9600  58.6700 H     1   SOL   0.4170
10827   HW2   2.7400  31.9800  59.6100 H     1   SOL   0.4170
10828    OW  17.4500  41.3500  43.9000 O     1   SOL  -0.8340
10829   HW1  17.3700  40.4000  43.8900 H     1   SOL   0.4170
10830   HW2  18.2400  41.5200  44.4000 H     1   SOL   0.4170
10831    OW  15.4900  33.3700  25.8000 O     1   SOL  -0.8340
10832   HW1  14.6600  33.8200  25.6200 H     1   SOL   0.4170
10833   HW2  15.2400  32.6000  26.3000 H     1   SOL   0.4170
10834    OW  27.9100  41.5600  55.8600 O     1   SOL  -0.8340
10835   HW1  27.7600  42.2500  55.2100 H     1   SOL   0.4170
10836   HW2  28.8400  41.3700  55.8000 H     1   SOL   0.4170
10837    OW  28.8600  11.2500  55.0300 O     1   SOL  -0.8340
10838   HW1  28.7300  11.9500  54.3900 H     1   SOL   0.4170
10839   HW2  27.9700  10.9500  55.2300 H     1   SOL   0.4170
10840    OW  24.7100  24.3700  53.4200 O     1   SOL  -0.8340
10841   HW1  24.9400  25.2500  53.1300 H     1   SOL   0.4170
10842   HW2  25.5500  23.9600  53.6400 H     1   SOL   0.4170
10843    OW  12.4500  32.4200  48.7500 O     1   SOL  -0.8340
10844   HW1  12.3400  31.7100  48.1200 H     1   SOL   0.4170
10845   HW2  12.2900  32.0100  49.6000 H     1   SOL   0.4170
10846    OW  38.1900  16.8300  47.7200 O     1   SOL  -0.8340
10847   HW1  38.2600  16.0200  48.2200 H     1   SOL   0.4170
10848   HW2  38.4400  16.5900  46.8300 H     1   SOL   0.4170
10849    OW  18.4400  37.9100  45.4700 O     1   SOL  -0.8340
10850   HW1  17.6000  38.0400  45.0300 H     1   SOL   0.4170
10851   HW2  18.2000  37.5800  46.3400 H     1   SOL   0.4170
10852    OW  15.8000  29.7900  35.4700 O     1   SOL  -0.8340
10853   HW1  15.7500  29.0700  34.8400 H     1   SOL   0.4170
10854   HW2  16.2500  29.4200  36.2300 H     1   SOL   0.4170
10855    OW  36.8700  42.8400  40.8100 O     1   SOL  -0.8340
10856   HW1  37.2800  43.6100  40.4100 H     1   SOL   0.4170
10857   HW2  37.4000  42.1000  40.5200 H     1   SOL   0.4170
10858    OW  32.4500  25.9200  50.3800 O     1   SOL  -0.8340
10859   HW1  33.1000  25.7000  49.7100 H     1   SOL   0.4170
10860   HW2  31.8800  25.1500  50.4100 H     1   SOL   0.4170
10861    OW   3.8700  14.5600  30.6500 O     1   SOL  -0.8340
10862   HW1   3.0200  14.2100  30.3800 H     1   SOL   0.4170
10863   HW2   3.7700  14.7400  31.5900 H     1   SOL   0.4170
10864    OW  28.9000  21.2800  55.0100 O     1   SOL  -0.8340
10865   HW1  28.2000  20.6500  55.1700 H     1   SOL   0.4170
10866   HW2  28.7400  21.6100  54.1300 H     1   SOL   0.4170
10867    OW  25.9600  23.1200  37.0600 O     1   SOL  -0.8340
10868   HW1  26.1200  22.9300  37.9800 H     1   SOL   0.4170
10869   HW2  26.1900  24.0400  36.9500 H     1   SOL   0.4170
10870    OW  36.7200  36.5600  54.7300 O     1   SOL  -0.8340
10871   HW1  36.6400  36.5300  55.6800 H     1   SOL   0.4170
10872   HW2  35.8700  36.2700  54.4000 H     1   SOL   0.4170
10873    OW   6.5600  32.2200  56.2700 O     1   SOL  -0.8340
10874   HW1   7.0300  31.9200  55.4900 H     1   SOL   0.4170
10875   HW2   7.2200  32.7100  56.7600 H     1   SOL   0.4170
10876    OW  37.9300  27.9600  54.2800 O     1   SOL  -0.8340
10877   HW1  37.5600  27.3500  54.9200 H     1   SOL   0.4170
10878   HW2  38.6600  27.4800  53.8900 H     1   SOL   0.4170
10879    OW  37.4500  30.6700  41.6400 O     1   SOL  -0.8340
10880   HW1  37.6600  29.9900  42.2800 H     1   SOL   0.4170
10881   HW2  36.5800  30.9800  41.8900 H     1   SOL   0.4170
10882    OW  41.7000  10.8400  52.5100 O     1   SOL  -0.8340
10883   HW1  40.9200  10.7600  53.0600 H     1   SOL   0.4170
10884   HW2  42.1700  11.5900  52.8700 H     1   SOL   0.4170
10885    OW  30.0300  42.7300  47.2700 O     1   SOL  -0.8340
10886   HW1  30.9000  42.4700  47.5700 H     1   SOL   0.4170
10887   HW2  30.1700  43.1300  46.4100 H     1   SOL   0.4170
10888    OW  37.4100  19.5900  48.0300 O     1   SOL  -0.8340
10889   HW1  38.2300  20.0900  48.0400 H     1   SOL   0.4170
10890   HW2  37.6900  18.6800  47.9600 H     1   SOL   0.4170
10891    OW   4.5000  25.6400  46.4900 O     1   SOL  -0.8340
10892   HW1   4.9100  25.9600  45.6800 H     1   SOL   0.4170
10893   HW2   3.6000  25.4300  46.2400 H     1   SOL   0.4170
10894    OW  22.5400  16.7100  35.3800 O     1   SOL  -0.8340
10895   HW1  22.8100  16.1900  36.1400 H     1   SOL   0.4170
10896   HW2  21.6000  16.8200  35.4800 H     1   SOL   0.4170
10897    OW  32.7100  14.6900  31.1500 O     1   SOL  -0.8340
10898   HW1  32.3200  14.2900  30.3800 H     1   SOL   0.4170
10899   HW2  33.1300  13.9700  31.6100 H     1   SOL   0.4170
10900    OW  18.5200  33.9700  47.6800 O     1   SOL  -0.8340
10901   HW1  19.2600  34.3100  48.1800 H     1   SOL   0.4170
10902   HW2  18.9000  33.7200  46.8400 H     1   SOL   0.4170
10903    OW  34.0100  35.8700  54.2100 O     1   SOL  -0.8340
10904   HW1  33.8400  35.0200  54.6100 H     1   SOL   0.4170
10905   HW2  33.9900  35.7100  53.2700 H     1   SOL   0.4170
10906    OW  29.1200   5.4600  41.8900 O     1   SOL  -0.8340
10907   HW1  28.4000   4.8500  41.7300 H     1   SOL   0.4170
10908   HW2  29.9000   4.9900  41.6100 H     1   SOL   0.4170
10909    OW  20.0900  27.6700  25.7700 O     1   SOL  -0.8340
10910   HW1  19.7900  26.8700  26.2000 H     1   SOL   0.4170
10911   HW2  21.0200  27.5200  25.6100 H     1   SOL   0.4170
10912    OW  22.0600  14.9000  31.2300 O     1   SOL  -0.8340
10913   HW1  21.2600  14.6800  31.7100 H     1   SOL   0.4170
10914   HW2  22.2300  14.1300  30.6900 H     1   SOL   0.4170
10915    OW   9.7300  36.7800  34.5200 O     1   SOL  -0.8340
10916   HW1  10.6400  37.0700  34.6600 H     1   SOL   0.4170
10917   HW2   9.7900  36.2200  33.7400 H     1   SOL   0.4170
10918    OW  18.3300  31.9200  43.5400 O     1   SOL  -0.8340
10919   HW1  18.3100  31.8800  42.5900 H     1   SOL   0.4170
10920   HW2  18.2700  32.8500  43.7400 H     1   SOL   0.4170
10921    OW  16.1000  30.0700  60.1200 O     1   SOL  -0.8340
10922   HW1  15.1700  30.0000  59.9200 H     1   SOL   0.4170
10923   HW2  16.5400  29.7100  59.3500 H     1   SOL   0.4170
10924    OW   5.4000  28.0200  61.5400 O     1   SOL  -0.8340
10925   HW1   5.4900  27.3800  60.8300 H     1   SOL   0.4170
10926   HW2   6.2500  28.4500  61.5900 H     1   SOL   0.4170
10927    OW  36.8400  38.6900  43.3000 O     1   SOL  -0.8340
10928   HW1  36.7600  39.6400  43.2700 H     1   SOL   0.4170
10929   HW2  36.4700  38.3900  42.4700 H     1   SOL   0.4170
10930    OW  38.8400  14.5900  48.9700 O     1   SOL  -0.8340
10931   HW1  39.7000  14.9400  49.1800 H     1   SOL   0.4170
10932   HW2  38.7800  13.7900  49.4900 H     1   SOL   0.4170
10933    OW  19.0900  30.4300  47.8800 O     1   SOL  -0.8340
10934   HW1  19.5200  30.6200  47.0500 H     1   SOL   0.4170
10935   HW2  19.8000  30.2200  48.4800 H     1   SOL   0.4170
10936    OW  29.0300  19.2400  50.5900 O     1   SOL  -0.8340
10937   HW1  29.4300  18.4800  51.0000 H     1   SOL   0.4170
10938   HW2  28.7600  19.8000  51.3200 H     1   SOL   0.4170
10939    OW  19.7800  38.1300  64.9000 O     1   SOL  -0.8340
10940   HW1  20.3500  38.9000  64.8200 H     1   SOL   0.4170
10941   HW2  18.9100  38.4900  65.0700 H     1   SOL   0.4170
10942    OW  18.9200  27.9400  52.0800 O     1   SOL  -0.8340
10943   HW1  18.7500  27.3900  51.3200 H     1   SOL   0.4170
10944   HW2  19.7500  28.3800  51.8700 H     1   SOL   0.4170
10945    OW  42.3900  40.7100  38.7000 O     1   SOL  -0.8340
10946   HW1  41.5400  41.0400  38.3900 H     1   SOL   0.4170
10947   HW2  42.2700  40.6400  39.6500 H     1   SOL   0.4170
10948    OW  19.8900  38.7400  31.2500 O     1   SOL  -0.8340
10949   HW1  19.8000  38.3900  32.1400 H     1   SOL   0.4170
10950   HW2  19.0200  39.0900  31.0400 H     1   SOL   0.4170
10951    OW  12.5200   2.6000  49.4100 O     1   SOL  -0.8340
10952   HW1  13.3300   3.1100  49.4200 H     1   SOL   0.4170
10953   HW2  12.1300   2.7500  50.2800 H     1   SOL   0.4170
10954    OW  24.0700  20.9300  37.5700 O     1   SOL  -0.8340
10955   HW1  24.8600  21.4500  37.4300 H     1   SOL   0.4170
10956   HW2  23.7600  20.7300  36.6800 H     1   SOL   0.4170
10957    OW  31.7200   4.1700  32.1100 O     1   SOL  -0.8340
10958   HW1  30.9800   4.3500  32.6900 H     1   SOL   0.4170
10959   HW2  32.1700   5.0200  32.0200 H     1   SOL   0.4170
10960    OW  23.6500   6.3000  46.1500 O     1   SOL  -0.8340
10961   HW1  22.8400   6.2900  45.6500 H     1   SOL   0.4170
10962   HW2  24.2700   6.7700  45.5800 H     1   SOL   0.4170
10963    OW  25.3100  35.1700  51.2100 O     1   SOL  -0.8340
10964   HW1  25.7100  34.6000  51.8700 H     1   SOL   0.4170
10965   HW2  25.5300  36.0500  51.4900 H     1   SOL   0.4170
10966    OW   2.5100  22.6600  39.7500 O     1   SOL  -0.8340
10967   HW1   2.3000  22.0100  39.0800 H     1   SOL   0.4170
10968   HW2   2.3500  23.5000  39.3400 H     1   SOL   0.4170
10969    OW   3.5600  41.7300  54.5200 O     1   SOL  -0.8340
10970   HW1   2.6500  41.9300  54.3300 H     1   SOL   0.4170
10971   HW2   4.0300  41.9500  53.7200 H     1   SOL   0.4170
10972    OW  26.1600  20.0300  56.1700 O     1   SOL  -0.8340
10973   HW1  25.3300  20.3100  55.7700 H     1   SOL   0.4170
10974   HW2  25.9400  19.2300  56.6400 H     1   SOL   0.4170
10975    OW  31.8000  36.1100  45.5300 O     1   SOL  -0.8340
10976   HW1  32.4000  36.8400  45.3900 H     1   SOL   0.4170
10977   HW2  31.1800  36.1600  44.8100 H     1   SOL   0.4170
10978    OW   1.5600  39.1700  51.5800 O     1   SOL  -0.8340
10979   HW1   1.0500  38.5300  52.0800 H     1   SOL   0.4170
10980   HW2   2.3100  38.6700  51.2500 H     1   SOL   0.4170
10981    OW   0.5400   5.2900  28.1200 O     1   SOL  -0.8340
10982   HW1   0.5900   6.0600  27.5600 H     1   SOL   0.4170
10983   HW2   1.3900   5.2500  28.5500 H     1   SOL   0.4170
10984    OW   9.1200  29.0200  54.3600 O     1   SOL  -0.8340
10985   HW1   9.6700  28.4900  54.9500 H     1   SOL   0.4170
10986   HW2   9.3600  29.9200  54.5700 H     1   SOL   0.4170
10987    OW  42.6000  40.4300  33.6700 O     1   SOL  -0.8340
10988   HW1  43.2500  41.0600  33.3700 H     1   SOL   0.4170
10989   HW2  42.1800  40.1100  32.8800 H     1   SOL   0.4170
10990    OW  15.8600   2.6400  62.9900 O     1   SOL  -0.8340
10991   HW1  15.5300   2.4000  63.8500 H     1   SOL   0.4170
10992   HW2  16.7100   2.2000  62.9300 H     1   SOL   0.4170
10993    OW  28.8900  21.3300  26.1900 O     1   SOL  -0.8340
10994   HW1  28.3000  20.7700  25.6800 H     1   SOL   0.4170
10995   HW2  28.9500  22.1400  25.6900 H     1   SOL   0.4170
10996    OW  25.5000  30.7500  29.5400 O     1   SOL  -0.8340
10997   HW1  25.0300  29.9500  29.3000 H     1   SOL   0.4170
10998   HW2  26.2000  30.8100  28.8900 H     1   SOL   0.4170
10999    OW  24.1900  20.7400  44.5300 O     1   SOL  -0.8340
11000   HW1  24.8100  20.0300  44.7200 H     1   SOL   0.4170
11001   HW2  23.6300  20.7900  45.3000 H     1   SOL   0.4170
11002    OW   5.5400  25.4800  60.1800 O     1   SOL  -0.8340
11003   HW1   6.3900  25.1700  60.5000 H     1   SOL   0.4170
11004   HW2   4.9400  24.7400  60.3400 H     1   SOL   0.4170
11005    OW  26.0100  23.2900  31.0900 O     1   SOL  -0.8340
11006   HW1  26.5300  23.7300  31.7700 H     1   SOL   0.4170
11007   HW2  25.5700  22.5700  31.5500 H     1   SOL   0.4170
11008    OW  32.7600  41.1200  50.2800 O     1   SOL  -0.8340
11009   HW1  32.8700  42.0600  50.3900 H     1   SOL   0.4170
11010   HW2  32.5900  41.0000  49.3500 H     1   SOL   0.4170
11011    OW  26.8400  30.7100  40.7400 O     1   SOL  -0.8340
11012   HW1  27.1600  30.2300  41.5100 H     1   SOL   0.4170
11013   HW2  26.7000  30.0300  40.0800 H     1   SOL   0.4170
11014    OW  12.1800  38.3300  37.6200 O     1   SOL  -0.8340
11015   HW1  12.3500  38.0100  38.5100 H     1   SOL   0.4170
11016   HW2  11.8100  37.5800  37.1600 H     1   SOL   0.4170
11017    OW   0.4700  22.7200  63.8300 O     1   SOL  -0.8340
11018   HW1   0.0000  22.9000  64.6400 H     1   SOL   0.4170
11019   HW2  -0.2100  22.6100  63.1700 H     1   SOL   0.4170
11020    OW  28.4300  17.3600  59.6500 O     1   SOL  -0.8340
11021   HW1  29.0400  16.6300  59.6900 H     1   SOL   0.4170
11022   HW2  27.8000  17.1800  60.3400 H     1   SOL   0.4170
11023    OW   5.2800  42.0600  59.1800 O     1   SOL  -0.8340
11024   HW1   5.1300  41.5500  58.3800 H     1   SOL   0.4170
11025   HW2   5.0400  41.4600  59.8900 H     1   SOL   0.4170
11026    OW   6.8900  31.0900  51.6200 O     1   SOL  -0.8340
11027   HW1   6.1500  31.7000  51.6100 H     1   SOL   0.4170
11028   HW2   7.4900  31.4200  50.9400 H     1   SOL   0.4170
11029    OW  15.2900  11.3000  58.0500 O     1   SOL  -0.8340
11030   HW1  15.4800  10.5100  58.5500 H     1   SOL   0.4170
11031   HW2  15.9200  11.9500  58.3700 H     1   SOL   0.4170
11032    OW   9.8800  28.6700  42.3800 O     1   SOL  -0.8340
11033   HW1   9.3500  28.9800  41.6500 H     1   SOL   0.4170
11034   HW2  10.2000  29.4800  42.7900 H     1   SOL   0.4170
11035    OW   3.8900  33.2300  41.1900 O     1   SOL  -0.8340
11036   HW1   3.4100  33.6800  40.5000 H     1   SOL   0.4170
11037   HW2   3.8900  33.8400  41.9300 H     1   SOL   0.4170
11038    OW   8.9800  26.3400  43.2100 O     1   SOL  -0.8340
11039   HW1   9.0300  25.8100  42.4100 H     1   SOL   0.4170
11040   HW2   9.1700  27.2300  42.9100 H     1   SOL   0.4170
11041    OW  40.0600  34.7100  36.4600 O     1   SOL  -0.8340
11042   HW1  40.9600  34.5600  36.1800 H     1   SOL   0.4170
11043   HW2  40.0500  35.6200  36.7600 H     1   SOL   0.4170
11044    OW  28.2900  21.2700  46.3100 O     1   SOL  -0.8340
11045   HW1  28.3900  21.5800  47.2200 H     1   SOL   0.4170
11046   HW2  27.9800  22.0400  45.8300 H     1   SOL   0.4170
11047    OW  40.4800  23.4300  44.9300 O     1   SOL  -0.8340
11048   HW1  40.2200  22.8300  44.2400 H     1   SOL   0.4170
11049   HW2  41.4300  23.3600  44.9700 H     1   SOL   0.4170
11050    OW  17.2600  26.7100  56.1400 O     1   SOL  -0.8340
11051   HW1  16.7900  25.9700  56.5400 H     1   SOL   0.4170
11052   HW2  16.7000  27.4600  56.2800 H     1   SOL   0.4170
11053    OW  17.9600   0.2000  40.0100 O     1   SOL  -0.8340
11054   HW1  18.6200   0.8900  39.9200 H     1   SOL   0.4170
11055   HW2  17.8000   0.1300  40.9500 H     1   SOL   0.4170
11056    OW  16.3000  38.8600  43.7900 O     1   SOL  -0.8340
11057   HW1  15.5800  38.4400  44.2700 H     1   SOL   0.4170
11058   HW2  16.2700  38.4500  42.9200 H     1   SOL   0.4170
11059    OW  17.8900  36.5300  35.5900 O     1   SOL  -0.8340
11060   HW1  17.1900  37.1900  35.5400 H     1   SOL   0.4170
11061   HW2  17.6600  36.0100  36.3700 H     1   SOL   0.4170
11062    OW  20.9900   3.1400  47.0200 O     1   SOL  -0.8340
11063   HW1  20.3200   3.5600  47.5600 H     1   SOL   0.4170
11064   HW2  20.5300   2.4500  46.5500 H     1   SOL   0.4170
11065    OW  24.8400  28.2400  28.7700 O     1   SOL  -0.8340
11066   HW1  24.4200  27.6000  29.3500 H     1   SOL   0.4170
11067   HW2  25.4800  27.7300  28.2700 H     1   SOL   0.4170
11068    OW  31.2700  23.1500  50.3700 O     1   SOL  -0.8340
11069   HW1  32.0300  22.6200  50.1200 H     1   SOL   0.4170
11070   HW2  31.4300  23.3700  51.2900 H     1   SOL   0.4170
11071    OW  20.8000  42.0300  67.7200 O     1   SOL  -0.8340
11072   HW1  20.9300  41.4400  68.4600 H     1   SOL   0.4170
11073   HW2  21.3200  41.6500  67.0100 H     1   SOL   0.4170
11074    OW  15.5400  21.6500  33.0700 O     1   SOL  -0.8340
11075   HW1  14.7400  21.3400  33.5100 H     1   SOL   0.4170
11076   HW2  15.3600  21.5400  32.1400 H     1   SOL   0.4170
11077    OW  28.0100   8.6700  23.5100 O     1   SOL  -0.8340
11078   HW1  28.0800   9.2700  24.2400 H     1   SOL   0.4170
11079   HW2  27.9700   7.8000  23.9100 H     1   SOL   0.4170
11080    OW  35.0800  38.1300  29.9400 O     1   SOL  -0.8340
11081   HW1  35.9400  37.7200  29.8400 H     1   SOL   0.4170
11082   HW2  34.8000  37.8600  30.8200 H     1   SOL   0.4170
11083    OW  32.1500  35.6100  71.8500 O     1   SOL  -0.8340
11084   HW1  32.7300  35.8700  71.1400 H     1   SOL   0.4170
11085   HW2  32.5600  34.8400  72.2300 H     1   SOL   0.4170
11086    OW  18.6800  22.2700  64.7800 O     1   SOL  -0.8340
11087   HW1  19.2000  23.0700  64.7400 H     1   SOL   0.4170
11088   HW2  19.0200  21.7300  64.0700 H     1   SOL   0.4170
11089    OW  19.8000  30.8300  74.0000 O     1   SOL  -0.8340
11090   HW1  19.9000  30.2300  74.7400 H     1   SOL   0.4170
11091   HW2  18.8500  30.9600  73.9200 H     1   SOL   0.4170
11092    OW  32.8200  32.3200  59.9800 O     1   SOL  -0.8340
11093   HW1  33.1100  32.3600  60.8900 H     1   SOL   0.4170
11094   HW2  33.1900  33.1000  59.5800 H     1   SOL   0.4170
11095    OW   1.8700  35.9200  56.2200 O     1   SOL  -0.8340
11096   HW1   1.6800  34.9900  56.1200 H     1   SOL   0.4170
11097   HW2   1.4700  36.1600  57.0600 H     1   SOL   0.4170
11098    OW  20.9100  26.7700  74.1100 O     1   SOL  -0.8340
11099   HW1  21.3200  26.6900  74.9700 H     1   SOL   0.4170
11100   HW2  21.3200  27.5500  73.7200 H     1   SOL   0.4170
11101    OW  42.8400  29.9100  61.8000 O     1   SOL  -0.8340
11102   HW1  43.5300  30.5400  61.9900 H     1   SOL   0.4170
11103   HW2  42.1800  30.0600  62.4800 H     1   SOL   0.4170
11104    OW  13.7900  23.4300  61.0000 O     1   SOL  -0.8340
11105   HW1  13.1000  23.3800  61.6500 H     1   SOL   0.4170
11106   HW2  13.4800  22.9100  60.2700 H     1   SOL   0.4170
11107    OW  36.1700  34.4800  57.3100 O     1   SOL  -0.8340
11108   HW1  35.4900  35.0200  57.7200 H     1   SOL   0.4170
11109   HW2  35.8000  33.6000  57.2800 H     1   SOL   0.4170
11110    OW  29.3100  30.7300  65.6700 O     1   SOL  -0.8340
11111   HW1  30.1400  30.8600  66.1300 H     1   SOL   0.4170
11112   HW2  29.5300  30.8300  64.7500 H     1   SOL   0.4170
11113    OW  32.7000  28.7900  71.1000 O     1   SOL  -0.8340
11114   HW1  33.5000  28.3900  71.4400 H     1   SOL   0.4170
11115   HW2  32.4700  28.2600  70.3400 H     1   SOL   0.4170
11116    OW  36.4900  20.5800  70.7700 O     1   SOL  -0.8340
11117   HW1  36.8500  20.5800  69.8900 H     1   SOL   0.4170
11118   HW2  36.2300  21.4900  70.9300 H     1   SOL   0.4170
11119    OW  27.8100  24.4800  70.0100 O     1   SOL  -0.8340
11120   HW1  27.0900  24.8500  70.5200 H     1   SOL   0.4170
11121   HW2  28.0000  23.6400  70.4200 H     1   SOL   0.4170
11122    OW  11.6000  34.4000  56.7000 O     1   SOL  -0.8340
11123   HW1  12.3900  34.7300  57.1200 H     1   SOL   0.4170
11124   HW2  11.1100  33.9800  57.4100 H     1   SOL   0.4170
11125    OW  21.6000  20.9800  67.2000 O     1   SOL  -0.8340
11126   HW1  21.7300  21.8300  67.6100 H     1   SOL   0.4170
11127   HW2  20.8100  20.6400  67.6200 H     1   SOL   0.4170
11128    OW  22.0500  40.5100  74.4700 O     1   SOL  -0.8340
11129   HW1  22.3600  40.6700  75.3600 H     1   SOL   0.4170
11130   HW2  21.9600  41.3900  74.0800 H     1   SOL   0.4170
11131    OW  30.7900  37.9600  47.4800 O     1   SOL  -0.8340
11132   HW1  29.9000  37.7300  47.2200 H     1   SOL   0.4170
11133   HW2  31.3500  37.3300  47.0200 H     1   SOL   0.4170
11134    OW  37.9600  28.8400  76.8700 O     1   SOL  -0.8340
11135   HW1  37.4600  28.0600  76.6200 H     1   SOL   0.4170
11136   HW2  38.8700  28.5500  76.8600 H     1   SOL   0.4170
11137    OW  31.1400  32.8600  49.3100 O     1   SOL  -0.8340
11138   HW1  30.1900  32.7800  49.4300 H     1   SOL   0.4170
11139   HW2  31.2900  32.5500  48.4200 H     1   SOL   0.4170
11140    OW  37.9100  34.2300  71.2000 O     1   SOL  -0.8340
11141   HW1  38.1000  34.6300  72.0400 H     1   SOL   0.4170
11142   HW2  38.2300  33.3300  71.2800 H     1   SOL   0.4170
11143    OW   9.9100   0.7200  58.1900 O     1   SOL  -0.8340
11144   HW1  10.4700   0.9900  58.9100 H     1   SOL   0.4170
11145   HW2   9.1900   0.2500  58.6100 H     1   SOL   0.4170
11146    OW  39.1000   0.2600  43.7500 O     1   SOL  -0.8340
11147   HW1  38.8400   0.6700  44.5700 H     1   SOL   0.4170
11148   HW2  40.0600   0.2700  43.7700 H     1   SOL   0.4170
11149    OW  30.7900  30.0800  51.0300 O     1   SOL  -0.8340
11150   HW1  30.0500  30.1700  50.4300 H     1   SOL   0.4170
11151   HW2  30.5300  30.5700  51.8100 H     1   SOL   0.4170
11152    OW   0.2600  21.0200  54.8300 O     1   SOL  -0.8340
11153   HW1   0.1600  21.7600  55.4100 H     1   SOL   0.4170
11154   HW2   1.1000  21.1700  54.3900 H     1   SOL   0.4170
11155    OW  15.0100  36.9100  59.4400 O     1   SOL  -0.8340
11156   HW1  15.8600  37.3600  59.4200 H     1   SOL   0.4170
11157   HW2  14.8400  36.7500  60.3600 H     1   SOL   0.4170
11158    OW  32.9200  31.8000  51.0400 O     1   SOL  -0.8340
11159   HW1  32.6100  32.5100  50.4800 H     1   SOL   0.4170
11160   HW2  32.2200  31.1400  51.0100 H     1   SOL   0.4170
11161    OW  23.8000  31.2200  53.4900 O     1   SOL  -0.8340
11162   HW1  24.0000  30.3700  53.8700 H     1   SOL   0.4170
11163   HW2  23.5800  31.7700  54.2500 H     1   SOL   0.4170
11164    OW  33.7600  30.9400  34.9900 O     1   SOL  -0.8340
11165   HW1  33.6600  30.1300  34.4800 H     1   SOL   0.4170
11166   HW2  34.6600  31.2100  34.8200 H     1   SOL   0.4170
11167    OW  35.9500  25.5500  63.9600 O     1   SOL  -0.8340
11168   HW1  36.5800  25.9600  64.5500 H     1   SOL   0.4170
11169   HW2  36.4700  25.2900  63.2000 H     1   SOL   0.4170
11170    OW  31.9500  24.2500  74.6000 O     1   SOL  -0.8340
11171   HW1  31.8100  25.1900  74.5000 H     1   SOL   0.4170
11172   HW2  31.7800  24.0800  75.5300 H     1   SOL   0.4170
11173    OW   1.8300  31.8400  63.0700 O     1   SOL  -0.8340
11174   HW1   2.2700  32.6900  62.9900 H     1   SOL   0.4170
11175   HW2   2.1500  31.4800  63.9000 H     1   SOL   0.4170
11176    OW  32.9100   0.0400  75.2800 O     1   SOL  -0.8340
11177   HW1  32.7000   0.3000  74.3800 H     1   SOL   0.4170
11178   HW2  32.8500  -0.9200  75.2700 H     1   SOL   0.4170
11179    OW  29.3500  26.1100  63.8500 O     1   SOL  -0.8340
11180   HW1  29.2500  25.7600  64.7400 H     1   SOL   0.4170
11181   HW2  29.1300  25.3700  63.2800 H     1   SOL   0.4170
11182    OW  21.1800  28.4900  47.9000 O     1   SOL  -0.8340
11183   HW1  20.4300  27.9800  47.6000 H     1   SOL   0.4170
11184   HW2  21.7100  28.6300  47.1100 H     1   SOL   0.4170
11185    OW  34.3800   5.7800  50.6000 O     1   SOL  -0.8340
11186   HW1  33.7900   5.0300  50.5700 H     1   SOL   0.4170
11187   HW2  33.8300   6.5400  50.4200 H     1   SOL   0.4170
11188    OW  29.6400  31.3100  74.3600 O     1   SOL  -0.8340
11189   HW1  30.5800  31.4500  74.4500 H     1   SOL   0.4170
11190   HW2  29.5600  30.5900  73.7300 H     1   SOL   0.4170
11191    OW  37.2400  37.1500  63.8300 O     1   SOL  -0.8340
11192   HW1  36.3000  37.1000  63.9900 H     1   SOL   0.4170
11193   HW2  37.6400  36.8400  64.6500 H     1   SOL   0.4170
11194    OW  22.2500  24.1700  76.9200 O     1   SOL  -0.8340
11195   HW1  22.2400  23.2800  77.2800 H     1   SOL   0.4170
11196   HW2  23.1700  24.3100  76.6800 H     1   SOL   0.4170
11197    OW  29.5900  42.6500  73.7400 O     1   SOL  -0.8340
11198   HW1  28.6900  42.3100  73.7500 H     1   SOL   0.4170
11199   HW2  30.1200  41.9300  73.4200 H     1   SOL   0.4170
11200    OW  42.0100  23.1900  68.8100 O     1   SOL  -0.8340
11201   HW1  42.0800  23.8500  69.5100 H     1   SOL   0.4170
11202   HW2  41.4300  22.5200  69.1700 H     1   SOL   0.4170
11203    OW  29.7700   6.6500  74.2800 O     1   SOL  -0.8340
11204   HW1  28.9600   6.2800  73.9300 H     1   SOL   0.4170
11205   HW2  29.6900   6.5400  75.2300 H     1   SOL   0.4170
11206    OW  31.1400  24.0600  59.0400 O     1   SOL  -0.8340
11207   HW1  31.2100  23.8900  58.1000 H     1   SOL   0.4170
11208   HW2  31.3900  24.9800  59.1300 H     1   SOL   0.4170
11209    OW  14.4100   8.5000  67.4000 O     1   SOL  -0.8340
11210   HW1  14.9900   7.8700  66.9900 H     1   SOL   0.4170
11211   HW2  13.8100   8.7700  66.7000 H     1   SOL   0.4170
11212    OW  26.1600  27.2500  50.0300 O     1   SOL  -0.8340
11213   HW1  26.0300  28.0400  49.5100 H     1   SOL   0.4170
11214   HW2  25.8600  26.5300  49.4700 H     1   SOL   0.4170
11215    OW  18.3900  31.2000  41.0100 O     1   SOL  -0.8340
11216   HW1  19.2000  30.7600  41.2700 H     1   SOL   0.4170
11217   HW2  18.6300  31.7300  40.2500 H     1   SOL   0.4170
11218    OW  29.0200  34.1200  59.4200 O     1   SOL  -0.8340
11219   HW1  28.1600  34.0800  59.0000 H     1   SOL   0.4170
11220   HW2  29.5900  34.5000  58.7500 H     1   SOL   0.4170
11221    OW  35.2200  31.8100  57.0700 O     1   SOL  -0.8340
11222   HW1  35.1800  31.6300  56.1300 H     1   SOL   0.4170
11223   HW2  35.8800  31.2000  57.4000 H     1   SOL   0.4170
11224    OW  25.5100  37.9000  65.8700 O     1   SOL  -0.8340
11225   HW1  25.1400  37.4500  65.1100 H     1   SOL   0.4170
11226   HW2  26.4000  38.1300  65.6000 H     1   SOL   0.4170
11227    OW  24.8500  13.5700  53.7200 O     1   SOL  -0.8340
11228   HW1  24.8900  13.5900  52.7700 H     1   SOL   0.4170
11229   HW2  24.2300  12.8600  53.9200 H     1   SOL   0.4170
11230    OW   2.2900  14.9300  51.7900 O     1   SOL  -0.8340
11231   HW1   2.9900  15.3800  51.3200 H     1   SOL   0.4170
11232   HW2   1.6600  15.6100  52.0200 H     1   SOL   0.4170
11233    OW  21.0500  23.2900  71.1200 O     1   SOL  -0.8340
11234   HW1  20.4800  23.9800  71.4600 H     1   SOL   0.4170
11235   HW2  20.9100  22.5500  71.7100 H     1   SOL   0.4170
11236    OW  40.3000  20.6900  47.5000 O     1   SOL  -0.8340
11237   HW1  40.5400  21.6100  47.3700 H     1   SOL   0.4170
11238   HW2  40.2800  20.3200  46.6100 H     1   SOL   0.4170
11239    OW   0.0900  10.7100  65.3200 O     1   SOL  -0.8340
11240   HW1   0.0200  10.1900  66.1200 H     1   SOL   0.4170
11241   HW2   0.8700  11.2500  65.4400 H     1   SOL   0.4170
11242    OW  31.4000   8.9100  73.7000 O     1   SOL  -0.8340
11243   HW1  30.8700   8.1300  73.5600 H     1   SOL   0.4170
11244   HW2  30.9600   9.3700  74.4300 H     1   SOL   0.4170
11245    OW  20.8300  35.8100  59.1100 O     1   SOL  -0.8340
11246   HW1  21.3500  35.0300  59.2600 H     1   SOL   0.4170
11247   HW2  19.9200  35.5200  59.1900 H     1   SOL   0.4170
11248    OW  33.5200  29.1500  74.0100 O     1   SOL  -0.8340
11249   HW1  34.0400  28.9900  74.8000 H     1   SOL   0.4170
11250   HW2  34.0100  28.7300  73.3100 H     1   SOL   0.4170
11251    OW  21.2900  19.5700  77.1100 O     1   SOL  -0.8340
11252   HW1  21.9700  20.0800  77.5600 H     1   SOL   0.4170
11253   HW2  21.2400  19.9500  76.2300 H     1   SOL   0.4170
11254    OW  36.2000   4.8500  66.1800 O     1   SOL  -0.8340
11255   HW1  35.5100   5.1300  65.5900 H     1   SOL   0.4170
11256   HW2  36.5800   5.6600  66.5100 H     1   SOL   0.4170
11257    OW  23.2100  24.8700  73.8100 O     1   SOL  -0.8340
11258   HW1  22.8900  24.1000  74.2900 H     1   SOL   0.4170
11259   HW2  22.4500  25.4500  73.7500 H     1   SOL   0.4170
11260    OW  21.5400  12.6000  57.2900 O     1   SOL  -0.8340
11261   HW1  21.9200  13.4200  57.6100 H     1   SOL   0.4170
11262   HW2  22.1200  12.3300  56.5800 H     1   SOL   0.4170
11263    OW  27.9200  16.6700  72.1300 O     1   SOL  -0.8340
11264   HW1  28.6800  16.7300  71.5600 H     1   SOL   0.4170
11265   HW2  27.1800  16.9100  71.5700 H     1   SOL   0.4170
11266    OW  33.7600  17.4300  50.1200 O     1   SOL  -0.8340
11267   HW1  33.1300  18.1500  50.1400 H     1   SOL   0.4170
11268   HW2  33.3600  16.7400  50.6500 H     1   SOL   0.4170
11269    OW  35.1100  19.6500  52.9500 O     1   SOL  -0.8340
11270   HW1  35.9600  19.8600  53.3400 H     1   SOL   0.4170
11271   HW2  35.2900  18.9100  52.3700 H     1   SOL   0.4170
11272    OW  30.0400   0.3500  57.0800 O     1   SOL  -0.8340
11273   HW1  29.4100  -0.3700  57.1200 H     1   SOL   0.4170
11274   HW2  30.7700   0.0700  57.6300 H     1   SOL   0.4170
11275    OW  41.5000   9.9700  63.5700 O     1   SOL  -0.8340
11276   HW1  42.3300  10.0400  64.0400 H     1   SOL   0.4170
11277   HW2  40.9100  10.5600  64.0200 H     1   SOL   0.4170
11278    OW  25.4700  27.2000  70.6600 O     1   SOL  -0.8340
11279   HW1  25.0400  27.3700  71.4900 H     1   SOL   0.4170
11280   HW2  25.1100  27.8600  70.0600 H     1   SOL   0.4170
11281    OW  34.4800   2.8600  61.7300 O     1   SOL  -0.8340
11282   HW1  34.7100   2.5900  62.6200 H     1   SOL   0.4170
11283   HW2  33.5800   3.1700  61.8000 H     1   SOL   0.4170
11284    OW  29.5700  31.9200  62.8500 O     1   SOL  -0.8340
11285   HW1  29.6000  31.6500  61.9400 H     1   SOL   0.4170
11286   HW2  28.6700  32.2100  62.9900 H     1   SOL   0.4170
11287    OW  20.1200   4.6300  64.3500 O     1   SOL  -0.8340
11288   HW1  20.0100   4.9300  63.4400 H     1   SOL   0.4170
11289   HW2  19.3800   5.0100  64.8200 H     1   SOL   0.4170
11290    OW  37.3500  29.0900  44.0600 O     1   SOL  -0.8340
11291   HW1  36.7600  29.8400  44.1700 H     1   SOL   0.4170
11292   HW2  36.9700  28.4200  44.6300 H     1   SOL   0.4170
11293    OW  27.6400  20.6000  52.4500 O     1   SOL  -0.8340
11294   HW1  27.3500  19.8600  52.9900 H     1   SOL   0.4170
11295   HW2  26.8400  21.0700  52.2300 H     1   SOL   0.4170
11296    OW  36.2700  15.9900  74.2000 O     1   SOL  -0.8340
11297   HW1  37.0700  15.6500  73.7900 H     1   SOL   0.4170
11298   HW2  35.5900  15.8600  73.5300 H     1   SOL   0.4170
11299    OW  34.1700   6.9500  72.8100 O     1   SOL  -0.8340
11300   HW1  34.0800   6.5100  71.9600 H     1   SOL   0.4170
11301   HW2  33.7200   7.7800  72.6900 H     1   SOL   0.4170
11302    OW   5.8100  25.7700  66.7700 O     1   SOL  -0.8340
11303   HW1   5.9100  24.8600  66.4900 H     1   SOL   0.4170
11304   HW2   6.3800  26.2700  66.1900 H     1   SOL   0.4170
11305    OW   3.0100  23.7400  63.5000 O     1   SOL  -0.8340
11306   HW1   2.2300  23.2000  63.5800 H     1   SOL   0.4170
11307   HW2   2.9400  24.3700  64.2200 H     1   SOL   0.4170
11308    OW  16.8300  19.0400  40.1000 O     1   SOL  -0.8340
11309   HW1  16.5200  19.9500  40.1000 H     1   SOL   0.4170
11310   HW2  16.6000  18.7000  40.9600 H     1   SOL   0.4170
11311    OW  24.1600  20.2900  52.3300 O     1   SOL  -0.8340
11312   HW1  23.9900  19.3600  52.4600 H     1   SOL   0.4170
11313   HW2  24.2500  20.3800  51.3800 H     1   SOL   0.4170
11314    OW  32.7400  34.5000  77.0900 O     1   SOL  -0.8340
11315   HW1  31.8800  34.1000  77.2000 H     1   SOL   0.4170
11316   HW2  33.3600  33.7800  77.1900 H     1   SOL   0.4170
11317    OW  35.5900  25.9100  54.7400 O     1   SOL  -0.8340
11318   HW1  35.6100  24.9500  54.7800 H     1   SOL   0.4170
11319   HW2  35.1400  26.1000  53.9200 H     1   SOL   0.4170
11320    OW  34.2100  34.9100  74.6600 O     1   SOL  -0.8340
11321   HW1  33.5400  34.8300  75.3400 H     1   SOL   0.4170
11322   HW2  33.9900  34.2300  74.0200 H     1   SOL   0.4170
11323    OW  34.2800  32.1600  62.8200 O     1   SOL  -0.8340
11324   HW1  34.0900  32.1500  63.7600 H     1   SOL   0.4170
11325   HW2  34.5400  31.2600  62.6200 H     1   SOL   0.4170
11326    OW  31.1200  41.0000  68.3700 O     1   SOL  -0.8340
11327   HW1  30.3400  41.1400  68.9100 H     1   SOL   0.4170
11328   HW2  30.8000  41.0900  67.4700 H     1   SOL   0.4170
11329    OW   2.6700  39.3200  59.1400 O     1   SOL  -0.8340
11330   HW1   3.3000  39.6400  59.7900 H     1   SOL   0.4170
11331   HW2   3.0000  39.6400  58.3000 H     1   SOL   0.4170
11332    OW  39.3800  31.5300  71.8200 O     1   SOL  -0.8340
11333   HW1  40.1100  32.1200  71.6100 H     1   SOL   0.4170
11334   HW2  39.7200  30.9900  72.5300 H     1   SOL   0.4170
11335    OW  23.5900  35.7900  77.1700 O     1   SOL  -0.8340
11336   HW1  23.5500  35.6400  76.2300 H     1   SOL   0.4170
11337   HW2  22.6700  35.7900  77.4500 H     1   SOL   0.4170
11338    OW  20.4500  38.2400  69.3600 O     1   SOL  -0.8340
11339   HW1  19.5000  38.1700  69.4500 H     1   SOL   0.4170
11340   HW2  20.6700  37.5900  68.6900 H     1   SOL   0.4170
11341    OW  15.9400  28.6900  41.5100 O     1   SOL  -0.8340
11342   HW1  15.7600  28.9400  42.4200 H     1   SOL   0.4170
11343   HW2  16.8100  29.0500  41.3300 H     1   SOL   0.4170
11344    OW  26.9500  32.4200  62.3600 O     1   SOL  -0.8340
11345   HW1  26.5400  31.7100  61.8600 H     1   SOL   0.4170
11346   HW2  26.3900  33.1800  62.1900 H     1   SOL   0.4170
11347    OW   4.1000  40.7900  56.8900 O     1   SOL  -0.8340
11348   HW1   3.7900  41.3500  56.1800 H     1   SOL   0.4170
11349   HW2   4.4500  40.0200  56.4400 H     1   SOL   0.4170
11350    OW  33.2800  33.4400  72.6900 O     1   SOL  -0.8340
11351   HW1  32.8600  32.8400  73.3100 H     1   SOL   0.4170
11352   HW2  33.6000  32.8700  71.9900 H     1   SOL   0.4170
11353    OW  34.0200  27.2600  65.1700 O     1   SOL  -0.8340
11354   HW1  33.1300  27.4100  64.8400 H     1   SOL   0.4170
11355   HW2  34.4200  26.6700  64.5300 H     1   SOL   0.4170
11356    OW   9.3700  24.7400  71.4100 O     1   SOL  -0.8340
11357   HW1  10.2600  24.6300  71.0800 H     1   SOL   0.4170
11358   HW2   9.2900  24.0800  72.1000 H     1   SOL   0.4170
11359    OW  34.0500  32.8900  68.9100 O     1   SOL  -0.8340
11360   HW1  33.9300  32.6700  69.8300 H     1   SOL   0.4170
11361   HW2  33.2400  32.6100  68.4800 H     1   SOL   0.4170
11362    OW  28.9400  33.9300  74.3300 O     1   SOL  -0.8340
11363   HW1  28.9900  32.9700  74.3100 H     1   SOL   0.4170
11364   HW2  29.0000  34.1900  73.4100 H     1   SOL   0.4170
11365    OW  22.5400  37.5600  57.5700 O     1   SOL  -0.8340
11366   HW1  21.8900  37.5800  58.2700 H     1   SOL   0.4170
11367   HW2  22.3400  36.7600  57.0800 H     1   SOL   0.4170
11368    OW  41.3400  26.9600  61.5300 O     1   SOL  -0.8340
11369   HW1  41.3800  27.2100  62.4600 H     1   SOL   0.4170
11370   HW2  42.1500  26.4700  61.3900 H     1   SOL   0.4170
11371    OW  36.4800  30.7800  65.2800 O     1   SOL  -0.8340
11372   HW1  37.3900  30.9800  65.5100 H     1   SOL   0.4170
11373   HW2  36.5400  30.3300  64.4400 H     1   SOL   0.4170
11374    OW  17.7000  31.0400  50.0800 O     1   SOL  -0.8340
11375   HW1  17.1300  30.2700  50.1700 H     1   SOL   0.4170
11376   HW2  18.1600  30.8900  49.2600 H     1   SOL   0.4170
11377    OW  30.1100  23.2300  56.5100 O     1   SOL  -0.8340
11378   HW1  30.1100  22.7000  57.3000 H     1   SOL   0.4170
11379   HW2  29.4300  22.8400  55.9600 H     1   SOL   0.4170
11380    OW  34.2100  23.2200  45.4200 O     1   SOL  -0.8340
11381   HW1  34.5600  22.5400  45.9900 H     1   SOL   0.4170
11382   HW2  34.9500  23.8100  45.2600 H     1   SOL   0.4170
11383    OW  41.6400  37.6800  58.5100 O     1   SOL  -0.8340
11384   HW1  40.7700  38.0600  58.3600 H     1   SOL   0.4170
11385   HW2  42.1400  38.3900  58.9100 H     1   SOL   0.4170
11386    OW  40.6300  38.6400  67.3500 O     1   SOL  -0.8340
11387   HW1  40.2700  39.4500  67.7100 H     1   SOL   0.4170
11388   HW2  41.5700  38.7000  67.4900 H     1   SOL   0.4170
11389    OW  24.6700  31.6200  67.7100 O     1   SOL  -0.8340
11390   HW1  23.9300  31.6000  67.1100 H     1   SOL   0.4170
11391   HW2  24.5000  32.3700  68.2900 H     1   SOL   0.4170
11392    OW  33.1700  22.1200  59.9000 O     1   SOL  -0.8340
11393   HW1  32.6100  22.8500  59.6100 H     1   SOL   0.4170
11394   HW2  32.9500  22.0000  60.8200 H     1   SOL   0.4170
11395    OW  20.0100  23.4000  43.6100 O     1   SOL  -0.8340
11396   HW1  20.6100  22.9400  43.0300 H     1   SOL   0.4170
11397   HW2  19.9000  22.8200  44.3600 H     1   SOL   0.4170
11398    OW   5.2500   9.8500  47.9100 O     1   SOL  -0.8340
11399   HW1   6.1700   9.8100  48.1600 H     1   SOL   0.4170
11400   HW2   4.9000  10.5900  48.4200 H     1   SOL   0.4170
11401    OW  31.9800  24.4800  46.6400 O     1   SOL  -0.8340
11402   HW1  32.7000  24.0900  46.1400 H     1   SOL   0.4170
11403   HW2  31.2200  23.9500  46.4200 H     1   SOL   0.4170
11404    OW  29.7700  36.1800  43.5000 O     1   SOL  -0.8340
11405   HW1  29.3300  36.0900  42.6500 H     1   SOL   0.4170
11406   HW2  29.1700  36.7200  44.0200 H     1   SOL   0.4170
11407    OW  23.3000  34.8800  74.3200 O     1   SOL  -0.8340
11408   HW1  23.8500  34.1100  74.4700 H     1   SOL   0.4170
11409   HW2  22.4000  34.5500  74.4000 H     1   SOL   0.4170
11410    OW  36.1700  18.3700  50.5700 O     1   SOL  -0.8340
11411   HW1  35.2900  18.0500  50.3800 H     1   SOL   0.4170
11412   HW2  36.3300  19.0400  49.9100 H     1   SOL   0.4170
11413    OW   8.3900  33.5300  62.8100 O     1   SOL  -0.8340
11414   HW1   8.7900  32.8100  62.3100 H     1   SOL   0.4170
11415   HW2   7.4500  33.4100  62.6900 H     1   SOL   0.4170
11416    OW  12.6200  41.1900  60.9900 O     1   SOL  -0.8340
11417   HW1  12.2000  41.1200  61.8500 H     1   SOL   0.4170
11418   HW2  12.6400  40.3000  60.6600 H     1   SOL   0.4170
11419    OW  27.8600  28.6100  70.5900 O     1   SOL  -0.8340
11420   HW1  27.1300  28.0100  70.7500 H     1   SOL   0.4170
11421   HW2  28.2200  28.3400  69.7400 H     1   SOL   0.4170
11422    OW  38.6300  33.8900  63.5000 O     1   SOL  -0.8340
11423   HW1  37.7100  34.1100  63.6200 H     1   SOL   0.4170
11424   HW2  38.9400  33.6700  64.3800 H     1   SOL   0.4170
11425    OW  39.5200  22.5400  50.6300 O     1   SOL  -0.8340
11426   HW1  39.3000  23.0800  51.3800 H     1   SOL   0.4170
11427   HW2  38.7100  22.0900  50.4100 H     1   SOL   0.4170
11428    OW  29.5000  35.1800  71.3800 O     1   SOL  -0.8340
11429   HW1  28.9600  35.7000  70.7800 H     1   SOL   0.4170
11430   HW2  30.3800  35.5600  71.2900 H     1   SOL   0.4170
11431    OW  26.6000   2.6100  63.1900 O     1   SOL  -0.8340
11432   HW1  26.0500   2.8500  63.9400 H     1   SOL   0.4170
11433   HW2  26.0900   2.8500  62.4200 H     1   SOL   0.4170
11434    OW  23.0200  27.5800  59.5800 O     1   SOL  -0.8340
11435   HW1  23.0600  28.5000  59.2900 H     1   SOL   0.4170
11436   HW2  23.6900  27.1400  59.0600 H     1   SOL   0.4170
11437    OW  36.1400  32.8000  46.8300 O     1   SOL  -0.8340
11438   HW1  35.2900  33.1700  47.0700 H     1   SOL   0.4170
11439   HW2  35.9300  32.0900  46.2300 H     1   SOL   0.4170
11440    OW  16.2900  23.5200  64.3100 O     1   SOL  -0.8340
11441   HW1  16.3700  23.9600  63.4600 H     1   SOL   0.4170
11442   HW2  17.2000  23.3000  64.5400 H     1   SOL   0.4170
11443    OW  34.8000  22.7400  70.0300 O     1   SOL  -0.8340
11444   HW1  35.5000  22.8400  69.3800 H     1   SOL   0.4170
11445   HW2  33.9900  22.7700  69.5300 H     1   SOL   0.4170
11446    OW  31.2800  30.2700  45.1300 O     1   SOL  -0.8340
11447   HW1  30.5600  30.6500  45.6400 H     1   SOL   0.4170
11448   HW2  31.0100  30.3700  44.2200 H     1   SOL   0.4170
11449    OW  38.4500  36.5300  66.2200 O     1   SOL  -0.8340
11450   HW1  38.9400  37.2000  66.6900 H     1   SOL   0.4170
11451   HW2  37.5900  36.5200  66.6300 H     1   SOL   0.4170
11452    OW  31.7100  36.2600  59.1900 O     1   SOL  -0.8340
11453   HW1  31.6600  36.7800  59.9900 H     1   SOL   0.4170
11454   HW2  31.2600  36.7900  58.5300 H     1   SOL   0.4170
11455    OW  37.0000  24.0300  57.4900 O     1   SOL  -0.8340
11456   HW1  37.9200  24.3000  57.4500 H     1   SOL   0.4170
11457   HW2  36.7400  24.2100  58.4000 H     1   SOL   0.4170
11458    OW  34.7100  39.1200  63.2600 O     1   SOL  -0.8340
11459   HW1  34.3700  38.6200  64.0000 H     1   SOL   0.4170
11460   HW2  34.6600  40.0300  63.5500 H     1   SOL   0.4170
11461    OW  26.4000  15.1100  46.0800 O     1   SOL  -0.8340
11462   HW1  27.2900  15.4400  46.2500 H     1   SOL   0.4170
11463   HW2  25.8300  15.8000  46.4300 H     1   SOL   0.4170
11464    OW  41.2400  33.0100  73.5700 O     1   SOL  -0.8340
11465   HW1  41.1000  32.0600  73.5900 H     1   SOL   0.4170
11466   HW2  41.6300  33.2200  74.4200 H     1   SOL   0.4170
11467    OW  38.3500  37.1500  61.3900 O     1   SOL  -0.8340
11468   HW1  38.3100  38.0900  61.2000 H     1   SOL   0.4170
11469   HW2  37.9400  37.0600  62.2500 H     1   SOL   0.4170
11470    OW  27.7900  24.3700  54.7000 O     1   SOL  -0.8340
11471   HW1  28.4100  24.6600  54.0200 H     1   SOL   0.4170
11472   HW2  27.6100  25.1600  55.2000 H     1   SOL   0.4170
11473    OW  42.3000  29.6300  66.1200 O     1   SOL  -0.8340
11474   HW1  41.4500  29.5000  66.5500 H     1   SOL   0.4170
11475   HW2  42.2600  30.5200  65.7800 H     1   SOL   0.4170
11476    OW  28.8700  25.4500  57.8700 O     1   SOL  -0.8340
11477   HW1  29.6700  25.9000  58.1300 H     1   SOL   0.4170
11478   HW2  29.1500  24.8100  57.2200 H     1   SOL   0.4170
11479    OW  37.8900  30.8800  69.3300 O     1   SOL  -0.8340
11480   HW1  37.2800  30.1800  69.5700 H     1   SOL   0.4170
11481   HW2  38.2800  31.1600  70.1600 H     1   SOL   0.4170
11482    OW  32.7300  38.2600  54.0900 O     1   SOL  -0.8340
11483   HW1  33.2700  37.4900  54.2400 H     1   SOL   0.4170
11484   HW2  32.8400  38.4500  53.1500 H     1   SOL   0.4170
11485    OW  35.0800  42.2300  68.0400 O     1   SOL  -0.8340
11486   HW1  35.5700  41.4200  68.1600 H     1   SOL   0.4170
11487   HW2  34.2700  42.1000  68.5300 H     1   SOL   0.4170
11488    OW  39.9700  39.9100  52.7500 O     1   SOL  -0.8340
11489   HW1  40.6300  39.7900  53.4300 H     1   SOL   0.4170
11490   HW2  39.1600  39.5800  53.1400 H     1   SOL   0.4170
11491    OW  33.1200  35.4200  67.9800 O     1   SOL  -0.8340
11492   HW1  33.5800  34.6900  68.3800 H     1   SOL   0.4170
11493   HW2  32.8400  35.0900  67.1200 H     1   SOL   0.4170
11494    OW  39.5300  30.7400  53.1600 O     1   SOL  -0.8340
11495   HW1  38.6500  30.6800  52.8100 H     1   SOL   0.4170
11496   HW2  39.4400  31.2800  53.9500 H     1   SOL   0.4170
11497    OW  28.7000   3.1600  66.1100 O     1   SOL  -0.8340
11498   HW1  29.1500   3.1500  66.9500 H     1   SOL   0.4170
11499   HW2  29.2800   3.6300  65.5200 H     1   SOL   0.4170
11500    OW  29.8700  32.6700  69.9400 O     1   SOL  -0.8340
11501   HW1  29.1900  31.9900  69.9800 H     1   SOL   0.4170
11502   HW2  29.4800  33.4200  70.3900 H     1   SOL   0.4170
11503    OW  14.4400  38.3800  50.4900 O     1   SOL  -0.8340
11504   HW1  14.0300  37.6800  51.0000 H     1   SOL   0.4170
11505   HW2  13.8000  39.0900  50.5000 H     1   SOL   0.4170
11506    OW  37.6900  10.9000  72.0000 O     1   SOL  -0.8340
11507   HW1  38.1400  10.4100  71.3100 H     1   SOL   0.4170
11508   HW2  36.7900  10.9700  71.6900 H     1   SOL   0.4170
11509    OW  29.8900  23.8600  68.0200 O     1   SOL  -0.8340
11510   HW1  29.5400  24.1300  67.1700 H     1   SOL   0.4170
11511   HW2  29.3400  24.3200  68.6600 H     1   SOL   0.4170
11512    OW  28.6600  35.5600  41.1700 O     1   SOL  -0.8340
11513   HW1  29.2800  35.2500  40.5100 H     1   SOL   0.4170
11514   HW2  28.1400  34.7800  41.4000 H     1   SOL   0.4170
11515    OW  14.0800  33.5500  46.5200 O     1   SOL  -0.8340
11516   HW1  13.9400  32.6300  46.3100 H     1   SOL   0.4170
11517   HW2  14.6300  33.5400  47.3100 H     1   SOL   0.4170
11518    OW  21.5700  26.8600  76.7500 O     1   SOL  -0.8340
11519   HW1  22.3600  27.3100  77.0300 H     1   SOL   0.4170
11520   HW2  21.7100  25.9500  77.0000 H     1   SOL   0.4170
11521    OW  35.7600  26.8400  59.9900 O     1   SOL  -0.8340
11522   HW1  36.4500  27.1400  60.5800 H     1   SOL   0.4170
11523   HW2  35.3300  27.6500  59.7000 H     1   SOL   0.4170
11524    OW  33.0100  16.1400  70.2700 O     1   SOL  -0.8340
11525   HW1  33.1800  15.5100  69.5700 H     1   SOL   0.4170
11526   HW2  33.4000  16.9500  69.9500 H     1   SOL   0.4170
11527    OW  29.1500  21.2500  68.8900 O     1   SOL  -0.8340
11528   HW1  29.7600  21.8700  68.4900 H     1   SOL   0.4170
11529   HW2  29.0400  21.5700  69.7900 H     1   SOL   0.4170
11530    OW  26.4700  34.4100  58.5600 O     1   SOL  -0.8340
11531   HW1  26.1500  35.3100  58.4500 H     1   SOL   0.4170
11532   HW2  26.2200  34.1700  59.4500 H     1   SOL   0.4170
11533    OW  12.4600  17.7100  73.2400 O     1   SOL  -0.8340
11534   HW1  13.2300  17.2100  73.4900 H     1   SOL   0.4170
11535   HW2  12.1100  17.2600  72.4700 H     1   SOL   0.4170
11536    OW  23.6500  21.6200  77.0100 O     1   SOL  -0.8340
11537   HW1  24.2000  22.4000  76.8600 H     1   SOL   0.4170
11538   HW2  24.2700  20.9400  77.2600 H     1   SOL   0.4170
11539    OW  34.1300  29.3300  62.9500 O     1   SOL  -0.8340
11540   HW1  33.8300  29.0400  63.8100 H     1   SOL   0.4170
11541   HW2  35.0800  29.2000  62.9700 H     1   SOL   0.4170
11542    OW   0.3500  35.6600  37.4000 O     1   SOL  -0.8340
11543   HW1   0.2900  36.5700  37.1300 H     1   SOL   0.4170
11544   HW2   1.1000  35.3200  36.9200 H     1   SOL   0.4170
11545    OW  33.0200  20.3000  57.4100 O     1   SOL  -0.8340
11546   HW1  32.7000  20.9000  58.0800 H     1   SOL   0.4170
11547   HW2  33.9700  20.3800  57.4400 H     1   SOL   0.4170
11548    OW  38.0800   4.4000  57.6900 O     1   SOL  -0.8340
11549   HW1  37.4300   4.5000  58.3900 H     1   SOL   0.4170
11550   HW2  38.5600   5.2400  57.6900 H     1   SOL   0.4170
11551    OW  26.6400  22.8000  56.8100 O     1   SOL  -0.8340
11552   HW1  27.1700  23.1400  56.1000 H     1   SOL   0.4170
11553   HW2  26.4400  21.9000  56.5400 H     1   SOL   0.4170
11554    OW  18.0400  37.2800  69.5500 O     1   SOL  -0.8340
11555   HW1  17.5400  37.8700  70.1100 H     1   SOL   0.4170
11556   HW2  17.9300  36.4200  69.9600 H     1   SOL   0.4170
11557    OW  29.7600  17.6600  73.8900 O     1   SOL  -0.8340
11558   HW1  30.5900  17.2500  73.6300 H     1   SOL   0.4170
11559   HW2  29.1200  17.3200  73.2700 H     1   SOL   0.4170
11560    OW  36.3800   3.1800  71.7600 O     1   SOL  -0.8340
11561   HW1  36.1000   3.5200  70.9100 H     1   SOL   0.4170
11562   HW2  35.6900   3.4500  72.3700 H     1   SOL   0.4170
11563    OW   1.6800  33.4800  67.2200 O     1   SOL  -0.8340
11564   HW1   1.3900  33.7800  66.3600 H     1   SOL   0.4170
11565   HW2   1.9900  34.2800  67.6600 H     1   SOL   0.4170
11566    OW  31.4100   0.9500  54.3500 O     1   SOL  -0.8340
11567   HW1  31.5100   0.1200  53.8700 H     1   SOL   0.4170
11568   HW2  31.0200   0.6900  55.1800 H     1   SOL   0.4170
11569    OW  33.3100  18.7400  46.7800 O     1   SOL  -0.8340
11570   HW1  33.0700  18.1100  46.1000 H     1   SOL   0.4170
11571   HW2  32.7400  18.5200  47.5200 H     1   SOL   0.4170
11572    OW  25.2500  40.9700  65.8700 O     1   SOL  -0.8340
11573   HW1  25.2100  41.8800  65.5900 H     1   SOL   0.4170
11574   HW2  25.2200  40.4700  65.0600 H     1   SOL   0.4170
11575    OW  26.3400  24.9600  67.7000 O     1   SOL  -0.8340
11576   HW1  25.4200  24.8800  67.9700 H     1   SOL   0.4170
11577   HW2  26.8300  24.8400  68.5100 H     1   SOL   0.4170
11578    OW  40.0200  36.4000  39.1200 O     1   SOL  -0.8340
11579   HW1  40.5000  36.6900  39.9000 H     1   SOL   0.4170
11580   HW2  39.2200  36.0200  39.4800 H     1   SOL   0.4170
11581    OW  41.9400   0.9100  52.0400 O     1   SOL  -0.8340
11582   HW1  42.8400   1.2400  52.0600 H     1   SOL   0.4170
11583   HW2  41.4500   1.6100  51.6100 H     1   SOL   0.4170
11584    OW  37.7900  20.5600  55.5100 O     1   SOL  -0.8340
11585   HW1  38.1800  20.3200  54.6700 H     1   SOL   0.4170
11586   HW2  37.4300  19.7400  55.8500 H     1   SOL   0.4170
11587    OW  41.3500  40.4800  48.1600 O     1   SOL  -0.8340
11588   HW1  41.4400  40.6700  49.0900 H     1   SOL   0.4170
11589   HW2  40.6100  39.8800  48.1100 H     1   SOL   0.4170
11590    OW  30.5300  33.7800  56.7000 O     1   SOL  -0.8340
11591   HW1  30.3500  32.9100  56.3400 H     1   SOL   0.4170
11592   HW2  31.4500  33.9400  56.4600 H     1   SOL   0.4170
11593    OW   5.2000  31.7100  74.7700 O     1   SOL  -0.8340
11594   HW1   4.4700  32.0400  75.2800 H     1   SOL   0.4170
11595   HW2   4.9000  31.7500  73.8600 H     1   SOL   0.4170
11596    OW  16.3200  25.4300  76.8800 O     1   SOL  -0.8340
11597   HW1  17.1800  25.8100  77.0300 H     1   SOL   0.4170
11598   HW2  15.7000  26.0900  77.2100 H     1   SOL   0.4170
11599    OW  34.0100  19.8600  71.5600 O     1   SOL  -0.8340
11600   HW1  33.4900  20.6000  71.8800 H     1   SOL   0.4170
11601   HW2  34.9000  20.2100  71.5000 H     1   SOL   0.4170
11602    OW  23.4600  28.8100  77.0900 O     1   SOL  -0.8340
11603   HW1  24.0000  29.4600  77.5400 H     1   SOL   0.4170
11604   HW2  23.3500  29.1600  76.2100 H     1   SOL   0.4170
11605    OW  15.8300  28.6100  76.8400 O     1   SOL  -0.8340
11606   HW1  15.9200  29.5500  76.6800 H     1   SOL   0.4170
11607   HW2  16.6200  28.3700  77.3200 H     1   SOL   0.4170
11608    OW  35.3800  37.3700  76.6100 O     1   SOL  -0.8340
11609   HW1  35.2600  38.2700  76.9000 H     1   SOL   0.4170
11610   HW2  34.5700  36.9200  76.8400 H     1   SOL   0.4170
11611    OW  29.4900  25.8600  76.5000 O     1   SOL  -0.8340
11612   HW1  28.8100  25.3100  76.8900 H     1   SOL   0.4170
11613   HW2  30.3000  25.5700  76.9100 H     1   SOL   0.4170
11614    OW  24.3900  27.3100  72.9500 O     1   SOL  -0.8340
11615   HW1  24.2600  26.5300  73.4900 H     1   SOL   0.4170
11616   HW2  24.1700  28.0400  73.5300 H     1   SOL   0.4170
11617    OW  28.1100  40.6700  73.1300 O     1   SOL  -0.8340
11618   HW1  27.5900  40.2000  72.4700 H     1   SOL   0.4170
11619   HW2  27.5100  40.7800  73.8700 H     1   SOL   0.4170
11620    OW  23.2900  32.4600  77.3000 O     1   SOL  -0.8340
11621   HW1  23.7900  31.7500  77.7100 H     1   SOL   0.4170
11622   HW2  23.9500  33.0000  76.8700 H     1   SOL   0.4170
11623    OW  25.5000  13.7100  74.3100 O     1   SOL  -0.8340
11624   HW1  25.2000  13.5500  75.2000 H     1   SOL   0.4170
11625   HW2  25.4900  14.6700  74.2300 H     1   SOL   0.4170
11626    OW  25.6600  33.7000  76.3300 O     1   SOL  -0.8340
11627   HW1  26.4500  33.6800  76.8600 H     1   SOL   0.4170
11628   HW2  25.2600  34.5400  76.5300 H     1   SOL   0.4170
11629    OW  16.9200  17.6500  77.0100 O     1   SOL  -0.8340
11630   HW1  16.0500  17.8800  77.3300 H     1   SOL   0.4170
11631   HW2  17.3400  18.4800  76.8000 H     1   SOL   0.4170
11632    OW   6.7700  27.9400  65.3800 O     1   SOL  -0.8340
11633   HW1   7.6000  28.3200  65.1100 H     1   SOL   0.4170
11634   HW2   6.4100  28.5600  66.0200 H     1   SOL   0.4170
11635    OW  20.2200  29.3600  76.2500 O     1   SOL  -0.8340
11636   HW1  20.6000  28.5300  76.5200 H     1   SOL   0.4170
11637   HW2  20.6300  30.0100  76.8300 H     1   SOL   0.4170
11638    OW  36.0300  26.6500  76.5300 O     1   SOL  -0.8340
11639   HW1  36.9000  26.2600  76.5300 H     1   SOL   0.4170
11640   HW2  35.8300  26.8100  75.6100 H     1   SOL   0.4170
11641    OW  24.9400  19.3500  77.3800 O     1   SOL  -0.8340
11642   HW1  24.8400  18.5300  77.8500 H     1   SOL   0.4170
11643   HW2  24.8900  19.1100  76.4600 H     1   SOL   0.4170
11644    OW   0.2000  23.3500  77.0400 O     1   SOL  -0.8340
11645   HW1   0.7400  24.1300  77.1500 H     1   SOL   0.4170
11646   HW2   0.8000  22.6200  77.1700 H     1   SOL   0.4170
11647    OW  24.3300  32.0200  74.5600 O     1   SOL  -0.8340
11648   HW1  25.1200  31.8200  74.0500 H     1   SOL   0.4170
11649   HW2  24.6500  32.1000  75.4600 H     1   SOL   0.4170
11650    OW  25.0000  23.9300  76.5100 O     1   SOL  -0.8340
11651   HW1  25.1300  24.7600  76.9700 H     1   SOL   0.4170
11652   HW2  25.7400  23.8700  75.9100 H     1   SOL   0.4170
11653    OW  29.6800  23.6900  61.5100 O     1   SOL  -0.8340
11654   HW1  30.3400  24.3300  61.7700 H     1   SOL   0.4170
11655   HW2  29.8300  23.5700  60.5700 H     1   SOL   0.4170
11656    OW  35.4900  28.8900  67.3200 O     1   SOL  -0.8340
11657   HW1  35.3200  28.3000  66.5900 H     1   SOL   0.4170
11658   HW2  35.9100  29.6500  66.9300 H     1   SOL   0.4170
11659    OW  20.3500  32.2300  77.0800 O     1   SOL  -0.8340
11660   HW1  19.9800  32.8000  76.4100 H     1   SOL   0.4170
11661   HW2  21.2900  32.3100  76.9800 H     1   SOL   0.4170
11662    OW  28.7200  38.0600  77.1100 O     1   SOL  -0.8340
11663   HW1  29.3200  37.3400  77.3100 H     1   SOL   0.4170
11664   HW2  27.9100  37.6200  76.8400 H     1   SOL   0.4170
11665    OW  29.9600  29.1000  72.5400 O     1   SOL  -0.8340
11666   HW1  29.3600  29.0300  71.8000 H     1   SOL   0.4170
11667   HW2  30.7700  29.4500  72.1600 H     1   SOL   0.4170
11668    OW  37.9700  26.6500  65.2700 O     1   SOL  -0.8340
11669   HW1  38.6900  27.0600  64.7900 H     1   SOL   0.4170
11670   HW2  38.1700  26.8200  66.1900 H     1   SOL   0.4170
11671    OW  21.4800  16.9200  76.7700 O     1   SOL  -0.8340
11672   HW1  21.6300  17.8300  77.0300 H     1   SOL   0.4170
11673   HW2  21.4900  16.9500  75.8100 H     1   SOL   0.4170
11674    OW  17.0300  22.2000  76.8700 O     1   SOL  -0.8340
11675   HW1  16.1300  22.1600  77.2000 H     1   SOL   0.4170
11676   HW2  17.1500  23.1200  76.6400 H     1   SOL   0.4170
11677    OW  25.6700  30.6200  77.1200 O     1   SOL  -0.8340
11678   HW1  25.9900  30.3900  76.2500 H     1   SOL   0.4170
11679   HW2  26.4400  30.5600  77.6900 H     1   SOL   0.4170
11680    OW  39.1200  33.0400  65.8700 O     1   SOL  -0.8340
11681   HW1  39.9400  33.3900  66.2100 H     1   SOL   0.4170
11682   HW2  38.4400  33.4700  66.4000 H     1   SOL   0.4170
11683    OW  25.6300  26.6400  77.2000 O     1   SOL  -0.8340
11684   HW1  25.0100  27.3700  77.2400 H     1   SOL   0.4170
11685   HW2  26.4900  27.0500  77.1100 H     1   SOL   0.4170
11686    OW  27.7100  28.2100  77.0500 O     1   SOL  -0.8340
11687   HW1  27.9500  28.9400  76.4800 H     1   SOL   0.4170
11688   HW2  28.1400  27.4500  76.6700 H     1   SOL   0.4170
11689    OW  39.0000  13.5800  68.5800 O     1   SOL  -0.8340
11690   HW1  39.3200  13.4300  69.4700 H     1   SOL   0.4170
11691   HW2  38.0800  13.2900  68.6100 H     1   SOL   0.4170
11692    OW  28.3600  41.1600  77.0000 O     1   SOL  -0.8340
11693   HW1  29.1300  41.4600  76.5200 H     1   SOL   0.4170
11694   HW2  28.5600  40.2500  77.2400 H     1   SOL   0.4170
11695    OW  30.1300  36.2800   6.7800 O     1   SOL  -0.8340
11696   HW1  30.3300  35.9600   7.6600 H     1   SOL   0.4170
11697   HW2  30.8200  36.9300   6.6000 H     1   SOL   0.4170
11698    OW  17.0900  43.1800   7.0300 O     1   SOL  -0.8340
11699   HW1  17.5000  42.3200   6.9600 H     1   SOL   0.4170
11700   HW2  17.8100  43.8000   6.9700 H     1   SOL   0.4170
11701    OW  40.0900  25.9300  21.1700 O     1   SOL  -0.8340
11702   HW1  39.2600  26.4000  21.1200 H     1   SOL   0.4170
11703   HW2  40.5200  26.1300  20.3400 H     1   SOL   0.4170
11704    OW  36.8800   1.2900   9.3300 O     1   SOL  -0.8340
11705   HW1  36.1400   0.7900   9.6800 H     1   SOL   0.4170
11706   HW2  36.7300   1.3000   8.3800 H     1   SOL   0.4170
11707    OW  39.0800  36.8800   9.6000 O     1   SOL  -0.8340
11708   HW1  39.9500  36.5400   9.8100 H     1   SOL   0.4170
11709   HW2  39.0200  36.8200   8.6500 H     1   SOL   0.4170
11710    OW  24.7300   2.3900   7.0100 O     1   SOL  -0.8340
11711   HW1  25.2200   3.1200   6.6400 H     1   SOL   0.4170
11712   HW2  24.8900   2.4400   7.9500 H     1   SOL   0.4170
11713    OW  37.8000  41.2000  13.9500 O     1   SOL  -0.8340
11714   HW1  37.3900  41.8500  13.3700 H     1   SOL   0.4170
11715   HW2  37.2700  40.4100  13.8300 H     1   SOL   0.4170
11716    OW  18.4800   3.4800  15.8600 O     1   SOL  -0.8340
11717   HW1  18.9500   4.1200  16.3900 H     1   SOL   0.4170
11718   HW2  19.1600   2.9700  15.4300 H     1   SOL   0.4170
11719    OW  41.1600   9.6800  25.2300 O     1   SOL  -0.8340
11720   HW1  41.8300   9.4600  24.5800 H     1   SOL   0.4170
11721   HW2  41.6400   9.7400  26.0500 H     1   SOL   0.4170
11722    OW  21.2900  40.5700   7.0300 O     1   SOL  -0.8340
11723   HW1  21.0600  41.4900   7.1100 H     1   SOL   0.4170
11724   HW2  22.0300  40.5500   6.4200 H     1   SOL   0.4170
11725    OW  26.5500  32.3300  14.9300 O     1   SOL  -0.8340
11726   HW1  26.7600  31.7300  15.6500 H     1   SOL   0.4170
11727   HW2  27.3500  32.8500  14.8100 H     1   SOL   0.4170
11728    OW  33.8400   2.0700   8.8200 O     1   SOL  -0.8340
11729   HW1  33.6600   2.6300   9.5700 H     1   SOL   0.4170
11730   HW2  34.4300   2.5900   8.2700 H     1   SOL   0.4170
11731    OW  14.7200   1.6100   6.7800 O     1   SOL  -0.8340
11732   HW1  14.0200   0.9600   6.7200 H     1   SOL   0.4170
11733   HW2  15.4900   1.1000   7.0600 H     1   SOL   0.4170
11734    OW  24.3500  40.7900   6.6500 O     1   SOL  -0.8340
11735   HW1  24.5200  39.8500   6.5700 H     1   SOL   0.4170
11736   HW2  25.1200  41.2000   6.2600 H     1   SOL   0.4170
11737    OW  39.5800  37.4700  14.8100 O     1   SOL  -0.8340
11738   HW1  39.7500  38.0100  15.5800 H     1   SOL   0.4170
11739   HW2  38.7700  37.8200  14.4500 H     1   SOL   0.4170
11740    OW  35.7900  38.2400  24.0500 O     1   SOL  -0.8340
11741   HW1  34.9200  37.8500  23.9900 H     1   SOL   0.4170
11742   HW2  36.2800  37.6500  24.6200 H     1   SOL   0.4170
11743    OW  23.8300  42.3000  18.9700 O     1   SOL  -0.8340
11744   HW1  23.6400  43.2300  19.0800 H     1   SOL   0.4170
11745   HW2  22.9900  41.9000  18.7400 H     1   SOL   0.4170
11746    OW  30.0300  34.8900   9.0000 O     1   SOL  -0.8340
11747   HW1  30.6900  34.6800   9.6500 H     1   SOL   0.4170
11748   HW2  29.4000  35.4400   9.4700 H     1   SOL   0.4170
11749    OW  39.2300   6.6200  12.7600 O     1   SOL  -0.8340
11750   HW1  39.5000   6.2200  13.5900 H     1   SOL   0.4170
11751   HW2  38.3100   6.3800  12.6700 H     1   SOL   0.4170
11752    OW  21.7200  30.6200   6.9500 O     1   SOL  -0.8340
11753   HW1  22.2200  29.8400   6.7200 H     1   SOL   0.4170
11754   HW2  22.3300  31.3400   6.8300 H     1   SOL   0.4170
11755    OW  29.6200   4.8300  21.3000 O     1   SOL  -0.8340
11756   HW1  29.3300   5.5800  20.7900 H     1   SOL   0.4170
11757   HW2  29.5500   5.1100  22.2100 H     1   SOL   0.4170
11758    OW  18.7100  37.9800  22.7700 O     1   SOL  -0.8340
11759   HW1  18.6000  37.6300  21.8900 H     1   SOL   0.4170
11760   HW2  17.8300  37.9700  23.1500 H     1   SOL   0.4170
11761    OW  38.0000   3.3300  15.3600 O     1   SOL  -0.8340
11762   HW1  37.2400   2.7800  15.5300 H     1   SOL   0.4170
11763   HW2  38.3000   3.0700  14.4900 H     1   SOL   0.4170
11764    OW  29.8500  42.2500   9.5000 O     1   SOL  -0.8340
11765   HW1  30.0100  42.6000   8.6300 H     1   SOL   0.4170
11766   HW2  28.9500  42.5000   9.7000 H     1   SOL   0.4170
11767    OW  41.1500  39.1700   6.6300 O     1   SOL  -0.8340
11768   HW1  40.5600  39.9200   6.6600 H     1   SOL   0.4170
11769   HW2  41.4900  39.0900   7.5200 H     1   SOL   0.4170
11770    OW  21.3300  24.2400  15.9500 O     1   SOL  -0.8340
11771   HW1  20.4600  24.5900  15.8200 H     1   SOL   0.4170
11772   HW2  21.8200  24.9500  16.3700 H     1   SOL   0.4170
11773    OW  27.9700   5.0600  10.5300 O     1   SOL  -0.8340
11774   HW1  28.7100   5.3500   9.9900 H     1   SOL   0.4170
11775   HW2  28.2400   5.2600  11.4300 H     1   SOL   0.4170
11776    OW  28.2500  36.7600  10.1200 O     1   SOL  -0.8340
11777   HW1  27.3900  37.1400   9.9600 H     1   SOL   0.4170
11778   HW2  28.6500  37.3300  10.7800 H     1   SOL   0.4170
11779    OW  31.5800  34.5200  11.2200 O     1   SOL  -0.8340
11780   HW1  32.4400  34.3100  11.5900 H     1   SOL   0.4170
11781   HW2  31.1600  35.0800  11.8700 H     1   SOL   0.4170
11782    OW  28.8300  34.0900  15.0300 O     1   SOL  -0.8340
11783   HW1  28.8700  34.6600  14.2600 H     1   SOL   0.4170
11784   HW2  29.5200  34.4200  15.6100 H     1   SOL   0.4170
11785    OW  30.7900  16.6300  25.6900 O     1   SOL  -0.8340
11786   HW1  30.5000  17.2700  26.3400 H     1   SOL   0.4170
11787   HW2  31.4800  16.1300  26.1300 H     1   SOL   0.4170
11788    OW  36.6800  41.4200   6.5900 O     1   SOL  -0.8340
11789   HW1  36.6500  40.4900   6.3700 H     1   SOL   0.4170
11790   HW2  36.2900  41.4700   7.4600 H     1   SOL   0.4170
11791    OW  29.7900  35.5900  13.0700 O     1   SOL  -0.8340
11792   HW1  29.3700  36.4200  12.9000 H     1   SOL   0.4170
11793   HW2  29.4800  35.0100  12.3700 H     1   SOL   0.4170
11794    OW  12.6200  36.5300  15.4500 O     1   SOL  -0.8340
11795   HW1  12.6500  37.0800  16.2300 H     1   SOL   0.4170
11796   HW2  12.5900  37.1500  14.7200 H     1   SOL   0.4170
11797    OW   2.9000   6.2500  24.7200 O     1   SOL  -0.8340
11798   HW1   3.6100   5.6200  24.6600 H     1   SOL   0.4170
11799   HW2   2.5000   6.2600  23.8500 H     1   SOL   0.4170
11800    OW  28.6900   1.9500  35.5200 O     1   SOL  -0.8340
11801   HW1  28.6900   1.0000  35.4100 H     1   SOL   0.4170
11802   HW2  27.7700   2.2000  35.4300 H     1   SOL   0.4170
11803    OW   4.5900  37.2900  38.9300 O     1   SOL  -0.8340
11804   HW1   5.3100  37.6500  38.4200 H     1   SOL   0.4170
11805   HW2   4.1200  38.0500  39.2600 H     1   SOL   0.4170
11806    OW  35.5300  40.6600  25.3500 O     1   SOL  -0.8340
11807   HW1  35.7900  39.8000  25.0000 H     1   SOL   0.4170
11808   HW2  36.0200  41.2900  24.8200 H     1   SOL   0.4170
11809    OW  36.9600   5.5200  39.0200 O     1   SOL  -0.8340
11810   HW1  37.1100   6.2700  38.4500 H     1   SOL   0.4170
11811   HW2  37.8100   5.3400  39.4200 H     1   SOL   0.4170
11812    OW  17.3300  28.9500  27.7400 O     1   SOL  -0.8340
11813   HW1  16.4600  29.3300  27.6400 H     1   SOL   0.4170
11814   HW2  17.3200  28.1700  27.1800 H     1   SOL   0.4170
11815    OW   0.8400   8.8800  45.2400 O     1   SOL  -0.8340
11816   HW1   0.2800   9.4400  45.7800 H     1   SOL   0.4170
11817   HW2   1.5700   8.6400  45.8000 H     1   SOL   0.4170
11818    OW  31.3400  11.2500  50.9100 O     1   SOL  -0.8340
11819   HW1  32.3000  11.2500  50.9900 H     1   SOL   0.4170
11820   HW2  31.0600  10.5100  51.4500 H     1   SOL   0.4170
11821    OW  18.6600  12.6800  30.7700 O     1   SOL  -0.8340
11822   HW1  18.6600  13.5200  31.2300 H     1   SOL   0.4170
11823   HW2  19.2300  12.1200  31.2900 H     1   SOL   0.4170
11824    OW  23.6200  31.5800  26.6300 O     1   SOL  -0.8340
11825   HW1  23.1800  31.1900  25.8700 H     1   SOL   0.4170
11826   HW2  22.9500  32.1100  27.0500 H     1   SOL   0.4170
11827    OW  29.7300  24.6400  34.9000 O     1   SOL  -0.8340
11828   HW1  28.8800  24.7500  35.3200 H     1   SOL   0.4170
11829   HW2  29.5300  24.4400  33.9900 H     1   SOL   0.4170
11830    OW  28.1700   3.9700  31.6600 O     1   SOL  -0.8340
11831   HW1  28.2300   3.0800  31.3100 H     1   SOL   0.4170
11832   HW2  28.4300   4.5400  30.9300 H     1   SOL   0.4170
11833    OW  37.8700   2.3900  21.2400 O     1   SOL  -0.8340
11834   HW1  37.1400   3.0100  21.2500 H     1   SOL   0.4170
11835   HW2  37.5300   1.6300  20.7500 H     1   SOL   0.4170
11836    OW  26.0100  13.2500  18.2500 O     1   SOL  -0.8340
11837   HW1  25.8900  12.6800  19.0100 H     1   SOL   0.4170
11838   HW2  26.1000  12.6500  17.5100 H     1   SOL   0.4170
11839    OW  31.1400  39.0200  42.5600 O     1   SOL  -0.8340
11840   HW1  31.0000  39.7700  43.1400 H     1   SOL   0.4170
11841   HW2  31.7000  38.4300  43.0600 H     1   SOL   0.4170
11842    OW  18.5400   1.7800  33.8900 O     1   SOL  -0.8340
11843   HW1  19.0800   2.0600  33.1500 H     1   SOL   0.4170
11844   HW2  17.6600   1.7000  33.5200 H     1   SOL   0.4170
11845    OW  24.7100  36.8800  25.3600 O     1   SOL  -0.8340
11846   HW1  25.4700  36.8900  25.9300 H     1   SOL   0.4170
11847   HW2  24.3100  37.7400  25.4700 H     1   SOL   0.4170
11848    OW  17.9000  40.9400  28.8700 O     1   SOL  -0.8340
11849   HW1  18.8200  40.7000  28.7600 H     1   SOL   0.4170
11850   HW2  17.9200  41.8800  29.0400 H     1   SOL   0.4170
11851    OW  36.8500  41.2700  17.0000 O     1   SOL  -0.8340
11852   HW1  37.3900  41.8100  16.4200 H     1   SOL   0.4170
11853   HW2  37.3400  40.4500  17.0900 H     1   SOL   0.4170
11854    OW  34.4100  40.5000   9.0400 O     1   SOL  -0.8340
11855   HW1  34.2400  41.2700   9.5700 H     1   SOL   0.4170
11856   HW2  35.3500  40.3500   9.1300 H     1   SOL   0.4170
11857    OW  13.2000  38.4800  17.2200 O     1   SOL  -0.8340
11858   HW1  12.6200  39.2400  17.2200 H     1   SOL   0.4170
11859   HW2  13.9900  38.7800  17.6800 H     1   SOL   0.4170
11860    OW  25.7000   4.9000  23.5800 O     1   SOL  -0.8340
11861   HW1  25.6700   5.0500  24.5200 H     1   SOL   0.4170
11862   HW2  25.0800   4.1900  23.4200 H     1   SOL   0.4170
11863    OW  31.5000  30.2600  16.7900 O     1   SOL  -0.8340
11864   HW1  30.7800  30.2300  17.4200 H     1   SOL   0.4170
11865   HW2  31.3700  29.5000  16.2300 H     1   SOL   0.4170
11866    OW  25.0400  34.9200  20.9100 O     1   SOL  -0.8340
11867   HW1  24.9000  34.0100  20.6700 H     1   SOL   0.4170
11868   HW2  25.2300  35.3600  20.0900 H     1   SOL   0.4170
11869    OW  30.7200  29.7800  37.6900 O     1   SOL  -0.8340
11870   HW1  30.3900  28.9900  38.1200 H     1   SOL   0.4170
11871   HW2  31.6200  29.8700  38.0000 H     1   SOL   0.4170
11872    OW  21.5700  39.8500  15.8900 O     1   SOL  -0.8340
11873   HW1  21.0300  39.0600  15.8900 H     1   SOL   0.4170
11874   HW2  21.5700  40.1500  16.8000 H     1   SOL   0.4170
11875    OW  27.6600   3.1800  41.1500 O     1   SOL  -0.8340
11876   HW1  27.2300   3.5800  40.3900 H     1   SOL   0.4170
11877   HW2  26.9500   2.7500  41.6300 H     1   SOL   0.4170
11878    OW  33.0300   0.5800  50.4600 O     1   SOL  -0.8340
11879   HW1  33.8000   1.0700  50.7400 H     1   SOL   0.4170
11880   HW2  32.4000   1.2600  50.2100 H     1   SOL   0.4170
11881    OW  11.8900   2.4300  40.1600 O     1   SOL  -0.8340
11882   HW1  12.7900   2.1700  39.9600 H     1   SOL   0.4170
11883   HW2  11.3700   1.6500  39.9400 H     1   SOL   0.4170
11884    OW  18.0300   0.9000  19.4500 O     1   SOL  -0.8340
11885   HW1  18.1600   0.6200  18.5500 H     1   SOL   0.4170
11886   HW2  17.3200   1.5200  19.4100 H     1   SOL   0.4170
11887    OW  30.2500  42.1200  28.3700 O     1   SOL  -0.8340
11888   HW1  30.8700  42.3600  29.0500 H     1   SOL   0.4170
11889   HW2  30.3300  41.1700  28.2800 H     1   SOL   0.4170
11890    OW  21.9100  43.1700  30.4700 O     1   SOL  -0.8340
11891   HW1  22.5000  42.4200  30.3900 H     1   SOL   0.4170
11892   HW2  21.7100  43.4200  29.5700 H     1   SOL   0.4170
11893    OW  11.4100  27.5600  31.5000 O     1   SOL  -0.8340
11894   HW1  10.9400  28.4000  31.4800 H     1   SOL   0.4170
11895   HW2  10.7200  26.9000  31.5200 H     1   SOL   0.4170
11896    OW   3.7200   5.3100  40.4400 O     1   SOL  -0.8340
11897   HW1   4.0600   4.7800  41.1700 H     1   SOL   0.4170
11898   HW2   2.8800   4.9100  40.2400 H     1   SOL   0.4170
11899    OW  29.9100   1.5000  22.5600 O     1   SOL  -0.8340
11900   HW1  30.2000   1.7500  21.6800 H     1   SOL   0.4170
11901   HW2  29.1100   2.0100  22.7000 H     1   SOL   0.4170
11902    OW  31.2800  37.2000  15.1000 O     1   SOL  -0.8340
11903   HW1  31.0200  36.4300  15.6100 H     1   SOL   0.4170
11904   HW2  30.8500  37.0700  14.2500 H     1   SOL   0.4170
11905    OW  28.6100   1.2000  31.5800 O     1   SOL  -0.8340
11906   HW1  29.0500   1.2400  32.4200 H     1   SOL   0.4170
11907   HW2  28.9100   0.3800  31.1900 H     1   SOL   0.4170
11908    OW  18.9700  23.8600  51.3000 O     1   SOL  -0.8340
11909   HW1  18.6000  24.0800  52.1600 H     1   SOL   0.4170
11910   HW2  19.8800  23.6300  51.4900 H     1   SOL   0.4170
11911    OW  34.7700   0.8000  26.3800 O     1   SOL  -0.8340
11912   HW1  35.6400   1.0900  26.6500 H     1   SOL   0.4170
11913   HW2  34.7500   0.9400  25.4400 H     1   SOL   0.4170
11914    OW  36.1600   7.3400  28.5900 O     1   SOL  -0.8340
11915   HW1  36.2700   7.4500  27.6500 H     1   SOL   0.4170
11916   HW2  35.7200   6.5000  28.6900 H     1   SOL   0.4170
11917    OW  34.8000   5.2900  29.3500 O     1   SOL  -0.8340
11918   HW1  34.2700   4.7000  28.8000 H     1   SOL   0.4170
11919   HW2  34.8900   4.8300  30.1800 H     1   SOL   0.4170
11920    OW  17.1200   5.0100  30.2800 O     1   SOL  -0.8340
11921   HW1  17.7800   5.1900  30.9600 H     1   SOL   0.4170
11922   HW2  16.4500   5.6800  30.4100 H     1   SOL   0.4170
11923    OW  41.9300  41.1200  31.1000 O     1   SOL  -0.8340
11924   HW1  42.5700  40.8300  30.4500 H     1   SOL   0.4170
11925   HW2  41.9400  42.0800  31.0300 H     1   SOL   0.4170
11926    OW  27.3400  29.7400  21.0500 O     1   SOL  -0.8340
11927   HW1  27.2000  30.6700  21.2600 H     1   SOL   0.4170
11928   HW2  27.6800  29.7600  20.1500 H     1   SOL   0.4170
11929    OW  16.9500  38.9000  48.7200 O     1   SOL  -0.8340
11930   HW1  16.0600  38.8700  49.0700 H     1   SOL   0.4170
11931   HW2  17.0400  38.1000  48.2000 H     1   SOL   0.4170
11932    OW  30.0300  27.6700  39.8500 O     1   SOL  -0.8340
11933   HW1  30.1700  27.1100  40.6200 H     1   SOL   0.4170
11934   HW2  29.8300  27.0600  39.1400 H     1   SOL   0.4170
11935    OW  22.3600   3.8200  37.5100 O     1   SOL  -0.8340
11936   HW1  22.7300   3.7400  38.3900 H     1   SOL   0.4170
11937   HW2  23.1000   3.6900  36.9200 H     1   SOL   0.4170
11938    OW  31.8000  27.8300  48.1000 O     1   SOL  -0.8340
11939   HW1  30.9100  27.5200  47.9400 H     1   SOL   0.4170
11940   HW2  31.8100  28.0700  49.0200 H     1   SOL   0.4170
11941    OW  18.5600  40.6600  24.3000 O     1   SOL  -0.8340
11942   HW1  18.6800  39.7600  23.9900 H     1   SOL   0.4170
11943   HW2  17.7300  40.9400  23.9100 H     1   SOL   0.4170
11944    OW  31.4200  10.2700  25.7200 O     1   SOL  -0.8340
11945   HW1  31.2500   9.5700  26.3500 H     1   SOL   0.4170
11946   HW2  30.8000  10.1200  25.0100 H     1   SOL   0.4170
11947    OW  37.7700   5.4400  30.3200 O     1   SOL  -0.8340
11948   HW1  36.9800   5.6700  29.8300 H     1   SOL   0.4170
11949   HW2  38.4400   6.0400  29.9900 H     1   SOL   0.4170
11950    OW  17.8400   3.8200  39.5600 O     1   SOL  -0.8340
11951   HW1  18.1900   3.0000  39.2100 H     1   SOL   0.4170
11952   HW2  18.4900   4.1100  40.2000 H     1   SOL   0.4170
11953    OW  34.2800  41.3700  16.8600 O     1   SOL  -0.8340
11954   HW1  35.1700  41.0200  16.9500 H     1   SOL   0.4170
11955   HW2  33.9600  41.0300  16.0300 H     1   SOL   0.4170
11956    OW  13.1100  31.7000  35.8800 O     1   SOL  -0.8340
11957   HW1  12.4000  31.2500  36.3300 H     1   SOL   0.4170
11958   HW2  13.7600  31.0100  35.7100 H     1   SOL   0.4170
11959    OW   7.4800  35.8300  43.6700 O     1   SOL  -0.8340
11960   HW1   6.9200  36.5700  43.9000 H     1   SOL   0.4170
11961   HW2   6.9800  35.0600  43.9500 H     1   SOL   0.4170
11962    OW  25.2000  27.4300  37.0200 O     1   SOL  -0.8340
11963   HW1  25.5700  28.1600  36.5100 H     1   SOL   0.4170
11964   HW2  25.4000  27.6600  37.9300 H     1   SOL   0.4170
11965    OW   7.3900  24.8500  39.4600 O     1   SOL  -0.8340
11966   HW1   7.7300  24.9300  38.5700 H     1   SOL   0.4170
11967   HW2   6.6500  24.2500  39.3800 H     1   SOL   0.4170
11968    OW  15.8700  33.8300  48.7000 O     1   SOL  -0.8340
11969   HW1  16.6900  33.4800  48.3400 H     1   SOL   0.4170
11970   HW2  15.9500  33.7000  49.6400 H     1   SOL   0.4170
11971    OW  16.3200  37.7200  26.2100 O     1   SOL  -0.8340
11972   HW1  16.9600  37.0300  26.3700 H     1   SOL   0.4170
11973   HW2  16.7000  38.5000  26.6100 H     1   SOL   0.4170
11974    OW  31.8000  31.7600  68.1500 O     1   SOL  -0.8340
11975   HW1  31.3900  30.8900  68.0500 H     1   SOL   0.4170
11976   HW2  31.1100  32.2900  68.5500 H     1   SOL   0.4170
11977    OW  32.4500   7.2800  49.3300 O     1   SOL  -0.8340
11978   HW1  31.7500   6.9100  48.7900 H     1   SOL   0.4170
11979   HW2  32.7300   8.0700  48.8600 H     1   SOL   0.4170
11980    OW  14.6200   5.5900  45.9800 O     1   SOL  -0.8340
11981   HW1  13.7200   5.2700  46.0600 H     1   SOL   0.4170
11982   HW2  14.6100   6.1200  45.1800 H     1   SOL   0.4170
11983    OW  35.9900  29.9200  54.7300 O     1   SOL  -0.8340
11984   HW1  35.2300  29.5300  54.3100 H     1   SOL   0.4170
11985   HW2  36.7100  29.3200  54.5500 H     1   SOL   0.4170
11986    OW  42.1500   7.0700  37.6400 O     1   SOL  -0.8340
11987   HW1  41.6200   7.4600  36.9400 H     1   SOL   0.4170
11988   HW2  42.0500   7.6800  38.3800 H     1   SOL   0.4170
11989    OW  25.8100  32.4100  56.8300 O     1   SOL  -0.8340
11990   HW1  24.8700  32.5700  56.7100 H     1   SOL   0.4170
11991   HW2  26.1200  33.1900  57.3000 H     1   SOL   0.4170
11992    OW  10.3100   5.1200  49.7500 O     1   SOL  -0.8340
11993   HW1  10.3100   5.0700  50.7100 H     1   SOL   0.4170
11994   HW2  10.0400   6.0200  49.5600 H     1   SOL   0.4170
11995    OW  32.4700   0.1400  72.7100 O     1   SOL  -0.8340
11996   HW1  31.7300   0.5200  72.2300 H     1   SOL   0.4170
11997   HW2  32.2300  -0.7800  72.8200 H     1   SOL   0.4170
11998    OW  25.9500   1.6400  42.4600 O     1   SOL  -0.8340
11999   HW1  26.6000   1.4000  43.1200 H     1   SOL   0.4170
12000   HW2  25.1800   1.8800  42.9600 H     1   SOL   0.4170
12001    OW  29.6200  14.8500  21.6400 O     1   SOL  -0.8340
12002   HW1  29.5800  13.9000  21.7600 H     1   SOL   0.4170
12003   HW2  29.4000  14.9800  20.7100 H     1   SOL   0.4170
12004    OW  12.5000  40.3300  49.5700 O     1   SOL  -0.8340
12005   HW1  12.7600  39.8400  48.7900 H     1   SOL   0.4170
12006   HW2  12.6400  41.2400  49.3400 H     1   SOL   0.4170
12007    OW  30.1100  32.5700  37.8500 O     1   SOL  -0.8340
12008   HW1  29.8800  32.5100  38.7700 H     1   SOL   0.4170
12009   HW2  30.5800  31.7600  37.6600 H     1   SOL   0.4170
12010    OW  22.5300  15.6000  45.8200 O     1   SOL  -0.8340
12011   HW1  22.4400  14.8400  46.4100 H     1   SOL   0.4170
12012   HW2  23.3500  16.0100  46.0900 H     1   SOL   0.4170
12013    OW  19.2200   7.9100  40.8200 O     1   SOL  -0.8340
12014   HW1  18.5200   8.4500  41.1900 H     1   SOL   0.4170
12015   HW2  19.3300   7.2000  41.4600 H     1   SOL   0.4170
12016    OW  17.6700  37.6900  60.9600 O     1   SOL  -0.8340
12017   HW1  17.6400  38.5300  61.4200 H     1   SOL   0.4170
12018   HW2  17.7900  37.0400  61.6500 H     1   SOL   0.4170
12019    OW  30.3900  37.5800  51.2300 O     1   SOL  -0.8340
12020   HW1  30.8700  38.4100  51.2300 H     1   SOL   0.4170
12021   HW2  30.9600  36.9700  50.7500 H     1   SOL   0.4170
12022    OW  41.2200  33.0500  51.2900 O     1   SOL  -0.8340
12023   HW1  41.9200  33.3300  50.7100 H     1   SOL   0.4170
12024   HW2  41.2500  32.0900  51.2700 H     1   SOL   0.4170
12025    OW  39.5100  33.8200  42.8600 O     1   SOL  -0.8340
12026   HW1  39.1600  34.2100  43.6600 H     1   SOL   0.4170
12027   HW2  39.4900  32.8800  43.0200 H     1   SOL   0.4170
12028    OW   3.2000  41.4700  48.1500 O     1   SOL  -0.8340
12029   HW1   2.4600  41.5300  48.7600 H     1   SOL   0.4170
12030   HW2   3.2000  42.3200  47.6900 H     1   SOL   0.4170
12031    OW  15.5300   6.6400  61.8500 O     1   SOL  -0.8340
12032   HW1  15.5600   5.7500  62.1900 H     1   SOL   0.4170
12033   HW2  15.3200   7.1800  62.6100 H     1   SOL   0.4170
12034    OW  27.9400  41.1600  37.8900 O     1   SOL  -0.8340
12035   HW1  27.0000  40.9700  37.9500 H     1   SOL   0.4170
12036   HW2  28.2800  40.9500  38.7600 H     1   SOL   0.4170
12037    OW  25.7900  35.6200  34.5600 O     1   SOL  -0.8340
12038   HW1  25.0000  35.0800  34.5300 H     1   SOL   0.4170
12039   HW2  25.7900  35.9800  35.4500 H     1   SOL   0.4170
12040    OW  38.6800   5.9700  60.5700 O     1   SOL  -0.8340
12041   HW1  38.5300   6.7400  60.0100 H     1   SOL   0.4170
12042   HW2  37.8400   5.8000  60.9700 H     1   SOL   0.4170
12043    OW  39.3600  35.3500  32.7000 O     1   SOL  -0.8340
12044   HW1  39.1300  34.5800  32.1700 H     1   SOL   0.4170
12045   HW2  39.5200  36.0400  32.0500 H     1   SOL   0.4170
12046    OW  23.7200  41.6800  52.0500 O     1   SOL  -0.8340
12047   HW1  22.7700  41.7300  52.1000 H     1   SOL   0.4170
12048   HW2  23.9000  40.8100  51.6800 H     1   SOL   0.4170
12049    OW  18.1800   0.3400  51.5800 O     1   SOL  -0.8340
12050   HW1  17.6600   0.4100  50.7800 H     1   SOL   0.4170
12051   HW2  17.5700   0.5400  52.2800 H     1   SOL   0.4170
12052    OW   3.9400  35.3400  52.0700 O     1   SOL  -0.8340
12053   HW1   4.5600  34.6600  51.7800 H     1   SOL   0.4170
12054   HW2   3.0800  34.9800  51.8500 H     1   SOL   0.4170
12055    OW  26.2600  29.9000  36.8300 O     1   SOL  -0.8340
12056   HW1  25.6200  30.5300  37.1400 H     1   SOL   0.4170
12057   HW2  27.0100  30.4300  36.5600 H     1   SOL   0.4170
12058    OW  26.3100  34.0700  53.8700 O     1   SOL  -0.8340
12059   HW1  26.7900  33.6700  54.5900 H     1   SOL   0.4170
12060   HW2  26.3600  35.0100  54.0400 H     1   SOL   0.4170
12061    OW  22.4600  27.2400  33.6300 O     1   SOL  -0.8340
12062   HW1  22.8100  26.3900  33.8700 H     1   SOL   0.4170
12063   HW2  21.7200  27.3800  34.2100 H     1   SOL   0.4170
12064    OW  14.1700  29.5300  53.8600 O     1   SOL  -0.8340
12065   HW1  14.1200  29.6400  52.9100 H     1   SOL   0.4170
12066   HW2  15.0600  29.2200  54.0200 H     1   SOL   0.4170
12067    OW  12.7000  24.9200  37.3900 O     1   SOL  -0.8340
12068   HW1  13.1900  25.1400  36.6000 H     1   SOL   0.4170
12069   HW2  12.9900  25.5500  38.0400 H     1   SOL   0.4170
12070    OW  29.8600  33.4600  43.8200 O     1   SOL  -0.8340
12071   HW1  30.0800  34.3500  43.5600 H     1   SOL   0.4170
12072   HW2  28.9100  33.4200  43.7700 H     1   SOL   0.4170
12073    OW  31.8200  43.1500  59.0600 O     1   SOL  -0.8340
12074   HW1  31.9100  42.2000  58.9900 H     1   SOL   0.4170
12075   HW2  32.5100  43.4200  59.6700 H     1   SOL   0.4170
12076    OW  25.2800  18.0900  44.7700 O     1   SOL  -0.8340
12077   HW1  25.2400  17.9300  45.7100 H     1   SOL   0.4170
12078   HW2  25.1500  17.2300  44.3700 H     1   SOL   0.4170
12079    OW  13.9000  35.2300  43.8600 O     1   SOL  -0.8340
12080   HW1  13.7100  36.1300  44.1300 H     1   SOL   0.4170
12081   HW2  13.9300  34.7300  44.6800 H     1   SOL   0.4170
12082    OW  22.8200  30.2800  33.9500 O     1   SOL  -0.8340
12083   HW1  22.9700  29.4000  33.6000 H     1   SOL   0.4170
12084   HW2  23.6900  30.5800  34.2000 H     1   SOL   0.4170
12085    OW  24.3200   7.6800  43.9800 O     1   SOL  -0.8340
12086   HW1  23.4600   7.7400  43.5500 H     1   SOL   0.4170
12087   HW2  24.6900   8.5600  43.8900 H     1   SOL   0.4170
12088    OW   0.6100  13.6300  39.0600 O     1   SOL  -0.8340
12089   HW1  -0.1900  13.1700  38.8200 H     1   SOL   0.4170
12090   HW2   1.1100  13.0000  39.5800 H     1   SOL   0.4170
12091    OW   8.5500  32.3300  41.0000 O     1   SOL  -0.8340
12092   HW1   9.1200  32.2500  41.7600 H     1   SOL   0.4170
12093   HW2   8.9800  32.9800  40.4500 H     1   SOL   0.4170
12094    OW   4.6900  26.8900  43.8500 O     1   SOL  -0.8340
12095   HW1   4.1500  27.6100  44.1700 H     1   SOL   0.4170
12096   HW2   5.4300  27.3200  43.4200 H     1   SOL   0.4170
12097    OW  41.5700  26.1700  41.8200 O     1   SOL  -0.8340
12098   HW1  41.4200  27.0200  42.2400 H     1   SOL   0.4170
12099   HW2  40.7800  25.6700  42.0000 H     1   SOL   0.4170
12100    OW  28.4700  37.2300  46.6200 O     1   SOL  -0.8340
12101   HW1  28.1800  36.6100  47.2900 H     1   SOL   0.4170
12102   HW2  27.7200  37.8000  46.4700 H     1   SOL   0.4170
12103    OW   3.9400   4.0600  54.3900 O     1   SOL  -0.8340
12104   HW1   3.6500   3.1600  54.5900 H     1   SOL   0.4170
12105   HW2   3.9500   4.5000  55.2400 H     1   SOL   0.4170
12106    OW  29.1000  26.0200  37.6800 O     1   SOL  -0.8340
12107   HW1  29.6900  25.5200  37.1100 H     1   SOL   0.4170
12108   HW2  28.2300  25.7100  37.4500 H     1   SOL   0.4170
12109    OW  16.8000  31.7100  55.7600 O     1   SOL  -0.8340
12110   HW1  16.6200  32.1000  54.9000 H     1   SOL   0.4170
12111   HW2  17.6100  32.1200  56.0500 H     1   SOL   0.4170
12112    OW  10.6600   3.8300  42.7100 O     1   SOL  -0.8340
12113   HW1  10.8200   3.1300  43.3400 H     1   SOL   0.4170
12114   HW2  10.9400   3.4800  41.8700 H     1   SOL   0.4170
12115    OW  22.8000  21.4800  46.9600 O     1   SOL  -0.8340
12116   HW1  22.3900  21.3400  47.8200 H     1   SOL   0.4170
12117   HW2  22.0800  21.7600  46.4000 H     1   SOL   0.4170
12118    OW  22.1700  27.1100  36.6700 O     1   SOL  -0.8340
12119   HW1  22.0900  27.6400  37.4700 H     1   SOL   0.4170
12120   HW2  23.1100  27.0600  36.5000 H     1   SOL   0.4170
12121    OW   7.8800   3.8500  49.2900 O     1   SOL  -0.8340
12122   HW1   7.9900   2.9600  48.9500 H     1   SOL   0.4170
12123   HW2   8.7800   4.1400  49.4800 H     1   SOL   0.4170
12124    OW  24.7900   5.5600  41.9500 O     1   SOL  -0.8340
12125   HW1  24.8300   6.1900  42.6700 H     1   SOL   0.4170
12126   HW2  25.2800   5.9800  41.2400 H     1   SOL   0.4170
12127    OW  20.0600   0.7500  45.6900 O     1   SOL  -0.8340
12128   HW1  20.5900   1.0600  44.9500 H     1   SOL   0.4170
12129   HW2  20.6600   0.2300  46.2100 H     1   SOL   0.4170
12130    OW  11.3900  35.0000  48.9800 O     1   SOL  -0.8340
12131   HW1  11.8300  34.2100  48.6600 H     1   SOL   0.4170
12132   HW2  11.4700  35.6300  48.2700 H     1   SOL   0.4170
12133    OW  22.4400  25.5000  42.5200 O     1   SOL  -0.8340
12134   HW1  22.3600  24.5700  42.2900 H     1   SOL   0.4170
12135   HW2  23.1800  25.5300  43.1200 H     1   SOL   0.4170
12136    OW  23.2800   3.4500  40.2700 O     1   SOL  -0.8340
12137   HW1  23.0200   2.7600  40.8800 H     1   SOL   0.4170
12138   HW2  23.9200   3.9700  40.7600 H     1   SOL   0.4170
12139    OW  16.5900   6.5300  71.4800 O     1   SOL  -0.8340
12140   HW1  16.6600   7.1400  70.7400 H     1   SOL   0.4170
12141   HW2  15.7400   6.1000  71.3500 H     1   SOL   0.4170
12142    OW  17.6500   7.1900  58.8100 O     1   SOL  -0.8340
12143   HW1  18.0000   7.3100  59.6900 H     1   SOL   0.4170
12144   HW2  17.5700   6.2400  58.7100 H     1   SOL   0.4170
12145    OW  20.6800  39.2200  53.1900 O     1   SOL  -0.8340
12146   HW1  19.7600  38.9900  53.0800 H     1   SOL   0.4170
12147   HW2  20.7200  40.1600  53.0100 H     1   SOL   0.4170
12148    OW   3.6000  33.8100  70.3200 O     1   SOL  -0.8340
12149   HW1   2.7500  33.3700  70.2800 H     1   SOL   0.4170
12150   HW2   3.6900  34.2400  69.4700 H     1   SOL   0.4170
12151    OW  32.5800  10.3400  63.3800 O     1   SOL  -0.8340
12152   HW1  32.9000  10.9100  62.6800 H     1   SOL   0.4170
12153   HW2  31.9200   9.8000  62.9500 H     1   SOL   0.4170
12154    OW  33.2600  28.7200  60.1900 O     1   SOL  -0.8340
12155   HW1  33.9000  29.3600  59.8700 H     1   SOL   0.4170
12156   HW2  33.4100  28.6900  61.1400 H     1   SOL   0.4170
12157    OW  19.2900  12.1800  68.5100 O     1   SOL  -0.8340
12158   HW1  18.5900  11.6000  68.2100 H     1   SOL   0.4170
12159   HW2  18.8400  12.8700  68.9900 H     1   SOL   0.4170
12160    OW  37.6000   7.5200  52.3700 O     1   SOL  -0.8340
12161   HW1  38.2200   8.0700  51.9000 H     1   SOL   0.4170
12162   HW2  37.3400   6.8500  51.7400 H     1   SOL   0.4170
12163    OW  28.1200  33.8000  47.9700 O     1   SOL  -0.8340
12164   HW1  28.2100  34.5800  48.5100 H     1   SOL   0.4170
12165   HW2  27.3200  33.3800  48.2700 H     1   SOL   0.4170
12166    OW  20.5500  29.6000  61.9600 O     1   SOL  -0.8340
12167   HW1  20.7000  29.6100  61.0100 H     1   SOL   0.4170
12168   HW2  19.6500  29.9100  62.0600 H     1   SOL   0.4170
12169    OW  37.3400   8.4500  59.4300 O     1   SOL  -0.8340
12170   HW1  37.3100   8.9800  60.2300 H     1   SOL   0.4170
12171   HW2  38.1400   8.7200  58.9800 H     1   SOL   0.4170
12172    OW  32.9000   9.6200  71.5100 O     1   SOL  -0.8340
12173   HW1  32.2200   9.3900  70.8800 H     1   SOL   0.4170
12174   HW2  32.4700   9.5100  72.3600 H     1   SOL   0.4170
12175    OW  32.6200  38.7400  56.7400 O     1   SOL  -0.8340
12176   HW1  31.7900  38.2800  56.8500 H     1   SOL   0.4170
12177   HW2  32.7500  38.7700  55.7900 H     1   SOL   0.4170
12178    OW  30.6400   0.6500  70.5200 O     1   SOL  -0.8340
12179   HW1  30.6300  -0.2300  70.1600 H     1   SOL   0.4170
12180   HW2  29.8500   0.7000  71.0600 H     1   SOL   0.4170
12181    OW  33.6800  35.1100  39.2400 O     1   SOL  -0.8340
12182   HW1  33.2000  34.9900  38.4200 H     1   SOL   0.4170
12183   HW2  33.2200  35.8200  39.6900 H     1   SOL   0.4170
12184    OW  31.9500  30.6800  64.3400 O     1   SOL  -0.8340
12185   HW1  31.9500  29.9300  63.7400 H     1   SOL   0.4170
12186   HW2  31.7000  31.4300  63.7900 H     1   SOL   0.4170
12187    OW  35.1200  40.4200  76.9400 O     1   SOL  -0.8340
12188   HW1  34.8600  41.3000  76.6800 H     1   SOL   0.4170
12189   HW2  35.9500  40.5400  77.4100 H     1   SOL   0.4170
12190    OW  18.6000  41.0600  49.8800 O     1   SOL  -0.8340
12191   HW1  18.1000  40.5200  49.2800 H     1   SOL   0.4170
12192   HW2  18.2500  41.9400  49.7600 H     1   SOL   0.4170
12193    OW  10.5700  42.6100  42.0900 O     1   SOL  -0.8340
12194   HW1  10.8600  41.7100  41.9500 H     1   SOL   0.4170
12195   HW2  10.3100  42.9200  41.2200 H     1   SOL   0.4170
12196    OW  25.7400  42.9000  49.4300 O     1   SOL  -0.8340
12197   HW1  25.5000  43.4300  50.1900 H     1   SOL   0.4170
12198   HW2  26.0400  42.0700  49.8100 H     1   SOL   0.4170
12199    OW  15.7700  40.2600  59.9900 O     1   SOL  -0.8340
12200   HW1  16.1000  40.1500  60.8800 H     1   SOL   0.4170
12201   HW2  14.8200  40.2200  60.0800 H     1   SOL   0.4170
12202    OW  11.2000  11.2600  65.3600 O     1   SOL  -0.8340
12203   HW1  11.1500  12.1500  65.0000 H     1   SOL   0.4170
12204   HW2  10.6200  10.7500  64.7900 H     1   SOL   0.4170
12205    OW  13.0800  23.6900  56.4700 O     1   SOL  -0.8340
12206   HW1  12.2600  23.7700  55.9800 H     1   SOL   0.4170
12207   HW2  13.2400  22.7500  56.5300 H     1   SOL   0.4170
12208    OW  17.3800  38.6200  66.5900 O     1   SOL  -0.8340
12209   HW1  17.5200  39.4900  66.9600 H     1   SOL   0.4170
12210   HW2  17.3700  38.0300  67.3500 H     1   SOL   0.4170
12211    OW   0.7800  16.1900  67.4500 O     1   SOL  -0.8340
12212   HW1   0.0200  16.7200  67.6600 H     1   SOL   0.4170
12213   HW2   1.4000  16.3500  68.1700 H     1   SOL   0.4170
12214    OW  33.2700  42.1100  62.4100 O     1   SOL  -0.8340
12215   HW1  32.7900  42.6900  63.0100 H     1   SOL   0.4170
12216   HW2  33.5700  42.6900  61.7100 H     1   SOL   0.4170
12217    OW  39.7000  43.0100  72.5200 O     1   SOL  -0.8340
12218   HW1  39.5400  42.1100  72.8000 H     1   SOL   0.4170
12219   HW2  39.0900  43.5400  73.0300 H     1   SOL   0.4170
12220    OW   9.1300   4.7300  52.3600 O     1   SOL  -0.8340
12221   HW1   9.3700   5.4200  52.9700 H     1   SOL   0.4170
12222   HW2   8.1800   4.7700  52.3100 H     1   SOL   0.4170
12223    OW  20.5700  29.2500  65.0400 O     1   SOL  -0.8340
12224   HW1  20.5600  29.1000  64.1000 H     1   SOL   0.4170
12225   HW2  21.2300  29.9400  65.1600 H     1   SOL   0.4170
12226    OW   7.4800  41.4300  52.9800 O     1   SOL  -0.8340
12227   HW1   7.2200  41.1600  53.8500 H     1   SOL   0.4170
12228   HW2   7.5600  40.6200  52.4800 H     1   SOL   0.4170
12229    OW  22.8000  17.1500  55.5800 O     1   SOL  -0.8340
12230   HW1  22.9500  18.0900  55.7000 H     1   SOL   0.4170
12231   HW2  23.3600  16.9100  54.8400 H     1   SOL   0.4170
12232    OW  14.8300  19.5700  71.2600 O     1   SOL  -0.8340
12233   HW1  14.1500  19.2800  70.6500 H     1   SOL   0.4170
12234   HW2  15.1500  20.3900  70.8800 H     1   SOL   0.4170
12235    OW   0.4500   7.8100  66.1900 O     1   SOL  -0.8340
12236   HW1   0.0700   7.7100  65.3200 H     1   SOL   0.4170
12237   HW2   0.2700   6.9700  66.6300 H     1   SOL   0.4170
12238    OW  19.6800  41.0600  64.2500 O     1   SOL  -0.8340
12239   HW1  19.0400  41.2000  64.9400 H     1   SOL   0.4170
12240   HW2  20.5200  41.2600  64.6500 H     1   SOL   0.4170
12241    OW  28.2200  24.4900  66.0800 O     1   SOL  -0.8340
12242   HW1  27.4300  24.5300  66.6200 H     1   SOL   0.4170
12243   HW2  27.9800  23.9100  65.3500 H     1   SOL   0.4170
12244    OW  29.6100   0.3700  65.6100 O     1   SOL  -0.8340
12245   HW1  29.6100   1.3200  65.5000 H     1   SOL   0.4170
12246   HW2  28.9800   0.0600  64.9600 H     1   SOL   0.4170
12247    OW  39.8600  42.6400  59.7200 O     1   SOL  -0.8340
12248   HW1  40.0300  43.4700  59.2900 H     1   SOL   0.4170
12249   HW2  40.6900  42.4000  60.1300 H     1   SOL   0.4170
12250    OW  27.6600   4.6300  74.2900 O     1   SOL  -0.8340
12251   HW1  27.6500   4.5900  75.2400 H     1   SOL   0.4170
12252   HW2  28.1600   3.8600  74.0200 H     1   SOL   0.4170
12253    OW  35.8800   9.6300  53.3500 O     1   SOL  -0.8340
12254   HW1  36.5400   9.0100  53.0200 H     1   SOL   0.4170
12255   HW2  35.2000   9.0700  53.7300 H     1   SOL   0.4170
12256    OW  28.0300  36.3600  50.5400 O     1   SOL  -0.8340
12257   HW1  27.2800  36.7800  50.1200 H     1   SOL   0.4170
12258   HW2  28.6200  37.0800  50.7600 H     1   SOL   0.4170
12259    OW  34.2600  36.7300  57.1500 O     1   SOL  -0.8340
12260   HW1  33.7500  36.0700  56.6700 H     1   SOL   0.4170
12261   HW2  33.7700  37.5400  57.0400 H     1   SOL   0.4170
12262    OW  38.5500   3.9800  52.6500 O     1   SOL  -0.8340
12263   HW1  37.8800   4.6100  52.3800 H     1   SOL   0.4170
12264   HW2  39.1300   3.9100  51.8900 H     1   SOL   0.4170
12265    OW  35.2700   4.0000  69.0900 O     1   SOL  -0.8340
12266   HW1  35.7100   4.3300  68.3100 H     1   SOL   0.4170
12267   HW2  35.2800   3.0500  69.0000 H     1   SOL   0.4170
12268    OW  25.1000  13.6000  66.7300 O     1   SOL  -0.8340
12269   HW1  24.5800  13.8400  67.4900 H     1   SOL   0.4170
12270   HW2  25.8700  14.1600  66.7700 H     1   SOL   0.4170
12271    OW  33.6400   5.9600  70.1900 O     1   SOL  -0.8340
12272   HW1  34.2800   5.3400  69.8500 H     1   SOL   0.4170
12273   HW2  32.7900   5.5500  70.0100 H     1   SOL   0.4170
12274    OW  33.9600  31.3100  71.2300 O     1   SOL  -0.8340
12275   HW1  34.8300  30.9300  71.1100 H     1   SOL   0.4170
12276   HW2  33.3600  30.6200  70.9600 H     1   SOL   0.4170
12277    OW  32.6600  39.7400  61.2000 O     1   SOL  -0.8340
12278   HW1  33.1600  39.1400  61.7500 H     1   SOL   0.4170
12279   HW2  32.8500  40.6100  61.5600 H     1   SOL   0.4170
12280    OW  16.6500  28.6700  30.3900 O     1   SOL  -0.8340
12281   HW1  17.0000  28.9000  29.5200 H     1   SOL   0.4170
12282   HW2  15.7600  28.3700  30.2200 H     1   SOL   0.4170
12283    OW  22.9200  27.0500  65.6100 O     1   SOL  -0.8340
12284   HW1  23.6500  27.5800  65.9300 H     1   SOL   0.4170
12285   HW2  23.3200  26.2100  65.3800 H     1   SOL   0.4170
12286    OW  18.1100   1.2200  63.3200 O     1   SOL  -0.8340
12287   HW1  18.7000   1.4700  64.0300 H     1   SOL   0.4170
12288   HW2  18.6500   0.6500  62.7600 H     1   SOL   0.4170
12289    OW  32.9000  42.3600  69.9000 O     1   SOL  -0.8340
12290   HW1  32.3500  41.8200  69.3300 H     1   SOL   0.4170
12291   HW2  32.3500  43.1000  70.1300 H     1   SOL   0.4170
12292    OW  15.0000   8.1200  74.0500 O     1   SOL  -0.8340
12293   HW1  15.3100   7.8900  74.9300 H     1   SOL   0.4170
12294   HW2  15.8000   8.3500  73.5700 H     1   SOL   0.4170
12295    OW  26.7800  39.3000  68.1900 O     1   SOL  -0.8340
12296   HW1  26.8500  40.1200  67.6900 H     1   SOL   0.4170
12297   HW2  26.3900  38.6800  67.5700 H     1   SOL   0.4170
12298    OW  36.7800  35.1600  73.9300 O     1   SOL  -0.8340
12299   HW1  35.9800  34.7200  74.2300 H     1   SOL   0.4170
12300   HW2  36.4700  35.9700  73.5200 H     1   SOL   0.4170
12301    OW  20.1400  42.6000  71.3300 O     1   SOL  -0.8340
12302   HW1  20.7000  42.0200  70.8200 H     1   SOL   0.4170
12303   HW2  20.7500  43.1600  71.8200 H     1   SOL   0.4170
12304    OW  24.3000  21.1400  72.5900 O     1   SOL  -0.8340
12305   HW1  24.2600  20.9800  71.6500 H     1   SOL   0.4170
12306   HW2  24.6900  22.0200  72.6600 H     1   SOL   0.4170
12307    OW  24.0900  39.7400  76.7100 O     1   SOL  -0.8340
12308   HW1  23.2400  40.1300  76.9100 H     1   SOL   0.4170
12309   HW2  23.9200  38.8100  76.6100 H     1   SOL   0.4170
12310    OW  38.7700  40.3000  73.0500 O     1   SOL  -0.8340
12311   HW1  38.1000  40.9000  73.3700 H     1   SOL   0.4170
12312   HW2  38.3500  39.4400  73.0700 H     1   SOL   0.4170
12313    OW  41.7000   7.3900   6.5100 O     1   SOL  -0.8340
12314   HW1  41.9200   8.3200   6.4400 H     1   SOL   0.4170
12315   HW2  41.1900   7.2100   5.7100 H     1   SOL   0.4170
12316    OW  34.5400   3.8300  31.8300 O     1   SOL  -0.8340
12317   HW1  33.7300   3.5600  32.2600 H     1   SOL   0.4170
12318   HW2  35.1900   3.8200  32.5200 H     1   SOL   0.4170
12319    OW  41.5300  10.5100  11.7600 O     1   SOL  -0.8340
12320   HW1  40.9900  11.2300  12.0700 H     1   SOL   0.4170
12321   HW2  42.1700  10.3700  12.4600 H     1   SOL   0.4170
12322    OW  26.0400   5.5800  18.3800 O     1   SOL  -0.8340
12323   HW1  26.7600   5.7700  17.7900 H     1   SOL   0.4170
12324   HW2  25.3100   6.0900  18.0400 H     1   SOL   0.4170
12325    OW  12.7300   8.9200  30.4000 O     1   SOL  -0.8340
12326   HW1  11.8500   9.0000  30.7500 H     1   SOL   0.4170
12327   HW2  13.2900   9.3800  31.0300 H     1   SOL   0.4170
12328    OW   0.8500  31.9500  12.3600 O     1   SOL  -0.8340
12329   HW1   0.1200  31.6100  12.8700 H     1   SOL   0.4170
12330   HW2   1.2200  31.1800  11.9300 H     1   SOL   0.4170
12331    OW  40.3900   1.5500   6.9200 O     1   SOL  -0.8340
12332   HW1  39.8900   0.8000   6.6100 H     1   SOL   0.4170
12333   HW2  40.7200   1.2900   7.7800 H     1   SOL   0.4170
12334    OW  41.1200  21.0600   9.4500 O     1   SOL  -0.8340
12335   HW1  40.2800  20.6100   9.4500 H     1   SOL   0.4170
12336   HW2  41.3800  21.1000   8.5300 H     1   SOL   0.4170
12337    OW  37.3100   4.2200   6.7200 O     1   SOL  -0.8340
12338   HW1  37.8300   4.9900   6.4900 H     1   SOL   0.4170
12339   HW2  37.7000   3.9000   7.5300 H     1   SOL   0.4170
12340    OW  25.9900  28.3300  31.9100 O     1   SOL  -0.8340
12341   HW1  25.1000  28.1500  31.6000 H     1   SOL   0.4170
12342   HW2  26.2700  29.0900  31.4000 H     1   SOL   0.4170
12343    OW   2.0700  39.6300   6.5900 O     1   SOL  -0.8340
12344   HW1   2.9400  40.0100   6.7000 H     1   SOL   0.4170
12345   HW2   2.2000  38.6900   6.7200 H     1   SOL   0.4170
12346    OW  41.7300  13.9100  24.2000 O     1   SOL  -0.8340
12347   HW1  41.3800  13.1900  24.7300 H     1   SOL   0.4170
12348   HW2  40.9700  14.2800  23.7500 H     1   SOL   0.4170
12349    OW  34.9000  14.9700   6.9100 O     1   SOL  -0.8340
12350   HW1  35.4400  15.7500   6.8200 H     1   SOL   0.4170
12351   HW2  35.4800  14.2500   6.6700 H     1   SOL   0.4170
12352    OW  42.5700  20.0100  26.0600 O     1   SOL  -0.8340
12353   HW1  43.2100  20.5400  25.5800 H     1   SOL   0.4170
12354   HW2  41.8900  19.8100  25.4200 H     1   SOL   0.4170
12355    OW  35.9300   3.6100  12.2900 O     1   SOL  -0.8340
12356   HW1  36.8800   3.4500  12.3500 H     1   SOL   0.4170
12357   HW2  35.5900   3.2900  13.1300 H     1   SOL   0.4170
12358    OW  40.3000  23.5700  17.8000 O     1   SOL  -0.8340
12359   HW1  40.4700  23.0700  17.0100 H     1   SOL   0.4170
12360   HW2  40.2600  22.9100  18.5000 H     1   SOL   0.4170
12361    OW   8.0500  41.4300  10.8100 O     1   SOL  -0.8340
12362   HW1   8.0900  42.3200  11.1400 H     1   SOL   0.4170
12363   HW2   8.4700  40.9000  11.5000 H     1   SOL   0.4170
12364    OW  10.4200  30.4800  15.4000 O     1   SOL  -0.8340
12365   HW1  10.3400  29.5500  15.2100 H     1   SOL   0.4170
12366   HW2   9.7400  30.9000  14.8800 H     1   SOL   0.4170
12367    OW  33.7800  21.0200  25.3500 O     1   SOL  -0.8340
12368   HW1  33.7000  20.2200  24.8200 H     1   SOL   0.4170
12369   HW2  33.8500  20.7000  26.2500 H     1   SOL   0.4170
12370    OW   0.2200   4.5800   6.4400 O     1   SOL  -0.8340
12371   HW1  -0.6200   5.0500   6.4100 H     1   SOL   0.4170
12372   HW2   0.8700   5.2300   6.1800 H     1   SOL   0.4170
12373    OW   3.2800  15.9000  41.7200 O     1   SOL  -0.8340
12374   HW1   3.1100  16.8300  41.5700 H     1   SOL   0.4170
12375   HW2   4.0200  15.8800  42.3300 H     1   SOL   0.4170
12376    OW  40.7900  16.8700  25.0200 O     1   SOL  -0.8340
12377   HW1  41.0300  17.6400  24.5000 H     1   SOL   0.4170
12378   HW2  41.3400  16.1700  24.6700 H     1   SOL   0.4170
12379    OW   1.2300  14.2900   8.9000 O     1   SOL  -0.8340
12380   HW1   1.0900  13.4100   8.5400 H     1   SOL   0.4170
12381   HW2   1.4600  14.1400   9.8100 H     1   SOL   0.4170
12382    OW  40.2900  16.5100   9.2600 O     1   SOL  -0.8340
12383   HW1  41.1100  16.7800   9.6700 H     1   SOL   0.4170
12384   HW2  39.8000  17.3200   9.1300 H     1   SOL   0.4170
12385    OW  40.2200  12.6900  19.1400 O     1   SOL  -0.8340
12386   HW1  41.0000  13.0300  19.5900 H     1   SOL   0.4170
12387   HW2  39.6800  12.3200  19.8400 H     1   SOL   0.4170
12388    OW  36.8100   1.2700   6.6200 O     1   SOL  -0.8340
12389   HW1  37.7400   1.3400   6.4100 H     1   SOL   0.4170
12390   HW2  36.5200   0.4900   6.1500 H     1   SOL   0.4170
12391    OW  10.4300   5.7400  23.6200 O     1   SOL  -0.8340
12392   HW1  11.1100   5.1200  23.8600 H     1   SOL   0.4170
12393   HW2  10.2600   6.2300  24.4200 H     1   SOL   0.4170
12394    OW  35.3200   6.5100  23.4100 O     1   SOL  -0.8340
12395   HW1  34.4500   6.9000  23.3500 H     1   SOL   0.4170
12396   HW2  35.5800   6.3700  22.5000 H     1   SOL   0.4170
12397    OW   4.4700  40.7900  11.0200 O     1   SOL  -0.8340
12398   HW1   5.1800  40.7700  10.3800 H     1   SOL   0.4170
12399   HW2   3.6700  40.8100  10.4900 H     1   SOL   0.4170
12400    OW  38.4900  26.6300  14.1600 O     1   SOL  -0.8340
12401   HW1  38.1700  27.2700  14.7900 H     1   SOL   0.4170
12402   HW2  38.6800  27.1500  13.3700 H     1   SOL   0.4170
12403    OW  34.5400  15.7400  26.5100 O     1   SOL  -0.8340
12404   HW1  33.6500  15.6200  26.8400 H     1   SOL   0.4170
12405   HW2  34.8600  16.5300  26.9500 H     1   SOL   0.4170
12406    OW  42.7600  37.7100  21.0800 O     1   SOL  -0.8340
12407   HW1  42.2900  38.4700  21.4300 H     1   SOL   0.4170
12408   HW2  42.7900  37.0900  21.8000 H     1   SOL   0.4170
12409    OW  41.0300  10.1300  20.9900 O     1   SOL  -0.8340
12410   HW1  41.7000   9.5500  20.6200 H     1   SOL   0.4170
12411   HW2  41.5200  10.8600  21.3700 H     1   SOL   0.4170
12412    OW  34.0000  29.5700  18.2300 O     1   SOL  -0.8340
12413   HW1  33.2600  29.5500  17.6300 H     1   SOL   0.4170
12414   HW2  34.7400  29.2600  17.7100 H     1   SOL   0.4170
12415    OW  43.1500  41.2900   6.4300 O     1   SOL  -0.8340
12416   HW1  43.7000  40.5100   6.5100 H     1   SOL   0.4170
12417   HW2  42.3300  40.9700   6.0700 H     1   SOL   0.4170
12418    OW   3.3600  28.4900  14.6400 O     1   SOL  -0.8340
12419   HW1   3.8000  29.1900  15.1200 H     1   SOL   0.4170
12420   HW2   3.6300  28.6300  13.7300 H     1   SOL   0.4170
12421    OW  36.7800  16.2100   9.6600 O     1   SOL  -0.8340
12422   HW1  37.3000  17.0100   9.7300 H     1   SOL   0.4170
12423   HW2  35.8700  16.5200   9.5800 H     1   SOL   0.4170
12424    OW  14.4500  14.9600  14.6300 O     1   SOL  -0.8340
12425   HW1  13.8400  15.4900  15.1400 H     1   SOL   0.4170
12426   HW2  13.9800  14.1400  14.4600 H     1   SOL   0.4170
12427    OW  41.5300   6.2900   8.9300 O     1   SOL  -0.8340
12428   HW1  40.9100   6.8200   9.4200 H     1   SOL   0.4170
12429   HW2  41.7400   6.8100   8.1500 H     1   SOL   0.4170
12430    OW  31.3000   9.6300  21.6200 O     1   SOL  -0.8340
12431   HW1  30.3600   9.5700  21.8100 H     1   SOL   0.4170
12432   HW2  31.4300  10.5200  21.3000 H     1   SOL   0.4170
12433    OW  33.5400  30.0000  37.6700 O     1   SOL  -0.8340
12434   HW1  34.1200  30.6100  38.1100 H     1   SOL   0.4170
12435   HW2  33.3400  30.4200  36.8300 H     1   SOL   0.4170
12436    OW  36.6300   6.1600  13.0900 O     1   SOL  -0.8340
12437   HW1  36.1700   5.9600  12.2800 H     1   SOL   0.4170
12438   HW2  35.9300   6.2100  13.7500 H     1   SOL   0.4170
12439    OW   9.2400   8.5100  46.5800 O     1   SOL  -0.8340
12440   HW1  10.1800   8.7000  46.6700 H     1   SOL   0.4170
12441   HW2   8.8100   9.2400  47.0200 H     1   SOL   0.4170
12442    OW  35.8500  24.1300  19.1300 O     1   SOL  -0.8340
12443   HW1  36.5300  24.7600  18.8900 H     1   SOL   0.4170
12444   HW2  35.7200  24.2600  20.0700 H     1   SOL   0.4170
12445    OW  19.5400   8.1500  34.9200 O     1   SOL  -0.8340
12446   HW1  20.3200   8.1600  34.3600 H     1   SOL   0.4170
12447   HW2  19.7100   8.8200  35.5800 H     1   SOL   0.4170
12448    OW  40.3500  26.3800  18.3500 O     1   SOL  -0.8340
12449   HW1  40.1500  25.4500  18.2900 H     1   SOL   0.4170
12450   HW2  41.1000  26.5100  17.7700 H     1   SOL   0.4170
12451    OW  33.0500  42.8200  32.8800 O     1   SOL  -0.8340
12452   HW1  33.2500  42.5200  31.9900 H     1   SOL   0.4170
12453   HW2  33.8800  43.1200  33.2300 H     1   SOL   0.4170
12454    OW   3.9500  18.0100  66.8900 O     1   SOL  -0.8340
12455   HW1   4.0300  17.0700  66.7300 H     1   SOL   0.4170
12456   HW2   3.3800  18.0700  67.6600 H     1   SOL   0.4170
12457    OW  26.9800  32.2800  22.0100 O     1   SOL  -0.8340
12458   HW1  27.5000  33.0700  22.1800 H     1   SOL   0.4170
12459   HW2  26.1200  32.6200  21.7500 H     1   SOL   0.4170
12460    OW  16.0900  20.9600  23.7700 O     1   SOL  -0.8340
12461   HW1  16.8600  20.9900  24.3500 H     1   SOL   0.4170
12462   HW2  15.6100  21.7600  23.9800 H     1   SOL   0.4170
12463    OW   1.2200  39.5300  14.4000 O     1   SOL  -0.8340
12464   HW1   0.5500  39.2500  15.0100 H     1   SOL   0.4170
12465   HW2   1.4300  40.4300  14.6500 H     1   SOL   0.4170
12466    OW   9.8300  34.3300  32.7700 O     1   SOL  -0.8340
12467   HW1   9.1500  33.9800  33.3600 H     1   SOL   0.4170
12468   HW2  10.5200  33.6700  32.7900 H     1   SOL   0.4170
12469    OW  39.4800  12.4000  32.1400 O     1   SOL  -0.8340
12470   HW1  40.3500  12.0100  32.2100 H     1   SOL   0.4170
12471   HW2  39.4000  12.6500  31.2200 H     1   SOL   0.4170
12472    OW   9.3900  21.3600  41.7200 O     1   SOL  -0.8340
12473   HW1   9.4800  20.4100  41.6900 H     1   SOL   0.4170
12474   HW2   8.6000  21.5400  41.2100 H     1   SOL   0.4170
12475    OW  19.3400  17.0400  29.4300 O     1   SOL  -0.8340
12476   HW1  19.8300  16.7700  30.2000 H     1   SOL   0.4170
12477   HW2  19.8700  17.7300  29.0200 H     1   SOL   0.4170
12478    OW  35.8500   0.5400  18.9800 O     1   SOL  -0.8340
12479   HW1  35.8000  -0.2500  18.4500 H     1   SOL   0.4170
12480   HW2  36.6400   0.9900  18.6700 H     1   SOL   0.4170
12481    OW  29.8300  30.2900  31.8900 O     1   SOL  -0.8340
12482   HW1  30.5700  30.7400  32.2900 H     1   SOL   0.4170
12483   HW2  29.0600  30.7600  32.2000 H     1   SOL   0.4170
12484    OW  38.8900   3.3100  12.5400 O     1   SOL  -0.8340
12485   HW1  38.8700   3.3200  11.5800 H     1   SOL   0.4170
12486   HW2  39.1900   4.1800  12.7800 H     1   SOL   0.4170
12487    OW  14.7400   4.1600  49.8500 O     1   SOL  -0.8340
12488   HW1  15.1300   3.8600  50.6700 H     1   SOL   0.4170
12489   HW2  14.2500   4.9500  50.0900 H     1   SOL   0.4170
12490    OW  13.7000   1.8300  30.5000 O     1   SOL  -0.8340
12491   HW1  13.9400   2.6900  30.8400 H     1   SOL   0.4170
12492   HW2  14.0000   1.2200  31.1800 H     1   SOL   0.4170
12493    OW  32.2800  16.4000  23.3700 O     1   SOL  -0.8340
12494   HW1  31.8200  16.5800  24.1900 H     1   SOL   0.4170
12495   HW2  32.2000  15.4600  23.2500 H     1   SOL   0.4170
12496    OW  38.6600   8.4200  31.6300 O     1   SOL  -0.8340
12497   HW1  39.3800   8.4700  31.0100 H     1   SOL   0.4170
12498   HW2  38.7600   7.5700  32.0500 H     1   SOL   0.4170
12499    OW   1.1600   6.7400  49.1900 O     1   SOL  -0.8340
12500   HW1   0.7600   6.7800  48.3200 H     1   SOL   0.4170
12501   HW2   1.8600   7.3900  49.1500 H     1   SOL   0.4170
12502    OW   1.2000   5.4500  38.9100 O     1   SOL  -0.8340
12503   HW1   0.7700   4.6000  39.0000 H     1   SOL   0.4170
12504   HW2   0.8300   5.8300  38.1200 H     1   SOL   0.4170
12505    OW   5.9900  31.4900  40.7900 O     1   SOL  -0.8340
12506   HW1   6.9300  31.6500  40.9300 H     1   SOL   0.4170
12507   HW2   5.6000  32.3600  40.8400 H     1   SOL   0.4170
12508    OW   0.2700  18.5900  43.7900 O     1   SOL  -0.8340
12509   HW1   1.0400  19.1300  43.9900 H     1   SOL   0.4170
12510   HW2   0.2500  18.5400  42.8400 H     1   SOL   0.4170
12511    OW   9.6100  17.9900  19.4200 O     1   SOL  -0.8340
12512   HW1   9.5700  18.5400  20.2000 H     1   SOL   0.4170
12513   HW2   9.8700  17.1300  19.7300 H     1   SOL   0.4170
12514    OW  28.0300  42.4100  35.5100 O     1   SOL  -0.8340
12515   HW1  27.0800  42.5200  35.5200 H     1   SOL   0.4170
12516   HW2  28.2200  41.9300  36.3100 H     1   SOL   0.4170
12517    OW  36.5000  21.3400  25.8700 O     1   SOL  -0.8340
12518   HW1  35.8400  20.6600  25.7200 H     1   SOL   0.4170
12519   HW2  36.8800  21.5000  25.0100 H     1   SOL   0.4170
12520    OW  29.2000   7.6300  36.5200 O     1   SOL  -0.8340
12521   HW1  28.8400   8.3800  36.0500 H     1   SOL   0.4170
12522   HW2  30.1300   7.8300  36.6200 H     1   SOL   0.4170
12523    OW   3.3200  18.6800  48.2100 O     1   SOL  -0.8340
12524   HW1   3.0600  19.4000  48.7800 H     1   SOL   0.4170
12525   HW2   3.8600  19.1000  47.5400 H     1   SOL   0.4170
12526    OW  26.4500  22.6100  39.7700 O     1   SOL  -0.8340
12527   HW1  26.8500  21.8000  40.1000 H     1   SOL   0.4170
12528   HW2  25.9300  22.9300  40.5100 H     1   SOL   0.4170
12529    OW  37.0500  14.0800  20.7900 O     1   SOL  -0.8340
12530   HW1  36.7500  14.7700  21.3800 H     1   SOL   0.4170
12531   HW2  37.6800  14.5200  20.2200 H     1   SOL   0.4170
12532    OW  29.0600   9.9100  34.9800 O     1   SOL  -0.8340
12533   HW1  29.6700   9.9200  34.2400 H     1   SOL   0.4170
12534   HW2  28.4300  10.6000  34.7900 H     1   SOL   0.4170
12535    OW  24.9400  41.3600  47.0700 O     1   SOL  -0.8340
12536   HW1  24.2200  41.7200  46.5600 H     1   SOL   0.4170
12537   HW2  25.1400  42.0400  47.7100 H     1   SOL   0.4170
12538    OW  26.3800  10.2800  29.8900 O     1   SOL  -0.8340
12539   HW1  27.1400  10.4300  30.4500 H     1   SOL   0.4170
12540   HW2  26.6900  10.4900  29.0100 H     1   SOL   0.4170
12541    OW  21.2700   9.9800  38.2300 O     1   SOL  -0.8340
12542   HW1  21.0000  10.0400  39.1400 H     1   SOL   0.4170
12543   HW2  20.6800   9.3200  37.8500 H     1   SOL   0.4170
12544    OW  36.8500  15.7500  23.1100 O     1   SOL  -0.8340
12545   HW1  36.1600  15.1900  23.4600 H     1   SOL   0.4170
12546   HW2  36.3900  16.5400  22.8200 H     1   SOL   0.4170
12547    OW   5.4300  14.7800  48.7500 O     1   SOL  -0.8340
12548   HW1   4.8600  15.2700  49.3400 H     1   SOL   0.4170
12549   HW2   4.8400  14.2000  48.2700 H     1   SOL   0.4170
12550    OW  21.9800  12.8500  37.5300 O     1   SOL  -0.8340
12551   HW1  21.1900  13.0500  37.0200 H     1   SOL   0.4170
12552   HW2  21.8600  11.9400  37.8000 H     1   SOL   0.4170
12553    OW   1.4800   6.7500  22.2100 O     1   SOL  -0.8340
12554   HW1   0.8200   6.9800  21.5600 H     1   SOL   0.4170
12555   HW2   2.2400   6.4600  21.7000 H     1   SOL   0.4170
12556    OW  22.6500  19.0900  33.3200 O     1   SOL  -0.8340
12557   HW1  21.9900  18.7000  32.7500 H     1   SOL   0.4170
12558   HW2  22.7600  18.4600  34.0300 H     1   SOL   0.4170
12559    OW   0.5700  15.4100  41.3900 O     1   SOL  -0.8340
12560   HW1   1.5100  15.5500  41.4700 H     1   SOL   0.4170
12561   HW2   0.4300  15.2100  40.4700 H     1   SOL   0.4170
12562    OW  38.4800  39.6100  31.3600 O     1   SOL  -0.8340
12563   HW1  38.5900  39.5100  30.4100 H     1   SOL   0.4170
12564   HW2  37.5900  39.9400  31.4700 H     1   SOL   0.4170
12565    OW  33.2600  40.6800  26.6400 O     1   SOL  -0.8340
12566   HW1  32.7300  41.3800  26.2700 H     1   SOL   0.4170
12567   HW2  34.1400  40.8200  26.2900 H     1   SOL   0.4170
12568    OW   1.3500   1.5100  51.6700 O     1   SOL  -0.8340
12569   HW1   1.6000   0.6700  52.0500 H     1   SOL   0.4170
12570   HW2   2.1500   2.0400  51.7200 H     1   SOL   0.4170
12571    OW   6.9800   4.4400  61.1000 O     1   SOL  -0.8340
12572   HW1   7.3300   4.6000  60.2300 H     1   SOL   0.4170
12573   HW2   6.0900   4.1300  60.9500 H     1   SOL   0.4170
12574    OW   3.7000  23.6200  60.5400 O     1   SOL  -0.8340
12575   HW1   3.3100  23.7000  61.4100 H     1   SOL   0.4170
12576   HW2   3.0700  23.0800  60.0500 H     1   SOL   0.4170
12577    OW   2.8400  21.9400  50.5900 O     1   SOL  -0.8340
12578   HW1   1.9800  21.8300  50.1900 H     1   SOL   0.4170
12579   HW2   2.7800  22.7600  51.0800 H     1   SOL   0.4170
12580    OW  24.4000   3.4800  32.0500 O     1   SOL  -0.8340
12581   HW1  24.8200   3.0100  31.3300 H     1   SOL   0.4170
12582   HW2  25.1200   3.7300  32.6300 H     1   SOL   0.4170
12583    OW   5.3400  38.1600  56.0100 O     1   SOL  -0.8340
12584   HW1   5.7100  37.4000  56.4600 H     1   SOL   0.4170
12585   HW2   4.8100  37.7900  55.3100 H     1   SOL   0.4170
12586    OW   7.6400  16.7000  49.1900 O     1   SOL  -0.8340
12587   HW1   8.3300  16.8400  48.5500 H     1   SOL   0.4170
12588   HW2   6.9100  16.3200  48.6900 H     1   SOL   0.4170
12589    OW  39.2700   9.1800  51.4200 O     1   SOL  -0.8340
12590   HW1  38.8700   9.4300  50.5900 H     1   SOL   0.4170
12591   HW2  40.1600   9.5200  51.3700 H     1   SOL   0.4170
12592    OW   2.0300  36.5600  66.4600 O     1   SOL  -0.8340
12593   HW1   2.8500  36.5500  65.9700 H     1   SOL   0.4170
12594   HW2   1.4500  35.9800  65.9700 H     1   SOL   0.4170
12595    OW   0.3300  15.2400  54.9300 O     1   SOL  -0.8340
12596   HW1   0.1900  16.1600  54.7100 H     1   SOL   0.4170
12597   HW2   1.2800  15.1400  54.9500 H     1   SOL   0.4170
12598    OW  38.8200  17.9300  50.8100 O     1   SOL  -0.8340
12599   HW1  37.8600  17.8800  50.8700 H     1   SOL   0.4170
12600   HW2  39.0100  17.7000  49.9000 H     1   SOL   0.4170
12601    OW   5.5700  33.6900  62.2900 O     1   SOL  -0.8340
12602   HW1   5.4100  33.6700  63.2300 H     1   SOL   0.4170
12603   HW2   4.7400  34.0000  61.9200 H     1   SOL   0.4170
12604    OW   9.8500   4.4100  35.5900 O     1   SOL  -0.8340
12605   HW1   9.3200   4.6200  36.3600 H     1   SOL   0.4170
12606   HW2  10.6300   4.9500  35.6700 H     1   SOL   0.4170
12607    OW  19.6000   8.8500  67.8200 O     1   SOL  -0.8340
12608   HW1  20.2700   8.8200  67.1400 H     1   SOL   0.4170
12609   HW2  20.0900   8.8200  68.6400 H     1   SOL   0.4170
12610    OW   6.2600  21.5300  62.1400 O     1   SOL  -0.8340
12611   HW1   6.8300  22.1700  61.7100 H     1   SOL   0.4170
12612   HW2   5.8800  21.0200  61.4200 H     1   SOL   0.4170
12613    OW   3.1700  16.8600  37.5400 O     1   SOL  -0.8340
12614   HW1   2.2200  16.8000  37.5800 H     1   SOL   0.4170
12615   HW2   3.4200  16.3000  36.8000 H     1   SOL   0.4170
12616    OW   5.0200  19.9300  53.6600 O     1   SOL  -0.8340
12617   HW1   5.7400  20.4900  53.3700 H     1   SOL   0.4170
12618   HW2   4.5200  19.7500  52.8600 H     1   SOL   0.4170
12619    OW   3.9200   2.3100  51.3000 O     1   SOL  -0.8340
12620   HW1   3.7700   3.2500  51.2400 H     1   SOL   0.4170
12621   HW2   4.8700   2.2100  51.3200 H     1   SOL   0.4170
12622    OW  15.1000  34.6900  41.4900 O     1   SOL  -0.8340
12623   HW1  14.8700  34.8100  42.4100 H     1   SOL   0.4170
12624   HW2  14.3600  34.2000  41.1200 H     1   SOL   0.4170
12625    OW   2.7600  12.3900  52.2500 O     1   SOL  -0.8340
12626   HW1   2.2000  12.1100  52.9700 H     1   SOL   0.4170
12627   HW2   2.5100  13.3000  52.0900 H     1   SOL   0.4170
12628    OW  39.6700  11.6700  64.7700 O     1   SOL  -0.8340
12629   HW1  38.7500  11.8200  64.5600 H     1   SOL   0.4170
12630   HW2  39.8400  12.2400  65.5300 H     1   SOL   0.4170
12631    OW  23.6700   2.5100  44.5000 O     1   SOL  -0.8340
12632   HW1  24.0900   2.7400  45.3300 H     1   SOL   0.4170
12633   HW2  23.2900   3.3300  44.1900 H     1   SOL   0.4170
12634    OW   2.4100  17.3000  32.7700 O     1   SOL  -0.8340
12635   HW1   1.4800  17.1600  32.5900 H     1   SOL   0.4170
12636   HW2   2.4500  18.1300  33.2400 H     1   SOL   0.4170
12637    OW  10.8400  40.0100  51.8600 O     1   SOL  -0.8340
12638   HW1  10.1600  40.4600  51.3600 H     1   SOL   0.4170
12639   HW2  11.6200  40.0600  51.3000 H     1   SOL   0.4170
12640    OW   3.4500  24.3300  52.1900 O     1   SOL  -0.8340
12641   HW1   3.3200  25.2300  51.8800 H     1   SOL   0.4170
12642   HW2   4.3800  24.1600  52.0500 H     1   SOL   0.4170
12643    OW  39.6400  27.8000  63.3400 O     1   SOL  -0.8340
12644   HW1  39.8000  28.7200  63.5700 H     1   SOL   0.4170
12645   HW2  39.7700  27.7700  62.3900 H     1   SOL   0.4170
12646    OW  34.3400   0.5800  60.6200 O     1   SOL  -0.8340
12647   HW1  34.9400   0.8000  59.9100 H     1   SOL   0.4170
12648   HW2  34.2600   1.3900  61.1300 H     1   SOL   0.4170
12649    OW  29.9800  37.6800  57.6300 O     1   SOL  -0.8340
12650   HW1  29.5100  36.9400  57.2400 H     1   SOL   0.4170
12651   HW2  29.2800  38.2500  57.9700 H     1   SOL   0.4170
12652    OW  17.5900  34.7800  40.0000 O     1   SOL  -0.8340
12653   HW1  16.7800  34.8900  40.5000 H     1   SOL   0.4170
12654   HW2  17.5200  33.9000  39.6400 H     1   SOL   0.4170
12655    OW   0.4400  40.6300  46.5600 O     1   SOL  -0.8340
12656   HW1   1.0500  41.2500  46.9600 H     1   SOL   0.4170
12657   HW2  -0.1600  40.3900  47.2600 H     1   SOL   0.4170
12658    OW  37.1000  10.9300  61.0200 O     1   SOL  -0.8340
12659   HW1  37.5200  11.2100  61.8400 H     1   SOL   0.4170
12660   HW2  37.1800  11.6900  60.4400 H     1   SOL   0.4170
12661    OW  11.8600   4.9200  47.2200 O     1   SOL  -0.8340
12662   HW1  11.6100   4.3200  47.9200 H     1   SOL   0.4170
12663   HW2  12.0300   5.7500  47.6700 H     1   SOL   0.4170
12664    OW  30.9900   8.5800  31.7300 O     1   SOL  -0.8340
12665   HW1  31.4600   8.4400  30.9000 H     1   SOL   0.4170
12666   HW2  31.6800   8.7900  32.3600 H     1   SOL   0.4170
12667    OW  41.4400  15.8100  59.3700 O     1   SOL  -0.8340
12668   HW1  41.0700  14.9400  59.5100 H     1   SOL   0.4170
12669   HW2  42.0900  15.6800  58.6700 H     1   SOL   0.4170
12670    OW  39.8900  20.2600  38.1600 O     1   SOL  -0.8340
12671   HW1  39.8300  20.0300  39.0900 H     1   SOL   0.4170
12672   HW2  39.5300  21.1500  38.1200 H     1   SOL   0.4170
12673    OW  22.2000  12.3300  30.4400 O     1   SOL  -0.8340
12674   HW1  22.1100  12.0100  29.5400 H     1   SOL   0.4170
12675   HW2  22.2400  11.5300  30.9700 H     1   SOL   0.4170
12676    OW  13.4300  27.1500  39.3400 O     1   SOL  -0.8340
12677   HW1  14.1800  27.5400  38.9000 H     1   SOL   0.4170
12678   HW2  13.8100  26.6100  40.0300 H     1   SOL   0.4170
12679    OW  32.8000  27.1400  68.9700 O     1   SOL  -0.8340
12680   HW1  33.2700  26.9900  68.1500 H     1   SOL   0.4170
12681   HW2  32.6800  26.2600  69.3400 H     1   SOL   0.4170
12682    OW  41.5200  15.7100  48.8300 O     1   SOL  -0.8340
12683   HW1  42.3700  15.9900  49.1500 H     1   SOL   0.4170
12684   HW2  41.5800  15.7900  47.8800 H     1   SOL   0.4170
12685    OW  36.6800  12.6100  50.8600 O     1   SOL  -0.8340
12686   HW1  36.7400  13.3100  51.5100 H     1   SOL   0.4170
12687   HW2  37.5500  12.2100  50.8500 H     1   SOL   0.4170
12688    OW  34.4300  31.9600  42.5000 O     1   SOL  -0.8340
12689   HW1  34.6800  32.7000  41.9500 H     1   SOL   0.4170
12690   HW2  34.1000  31.3000  41.8800 H     1   SOL   0.4170
12691    OW   9.7700  14.8400  50.3900 O     1   SOL  -0.8340
12692   HW1   9.0700  14.2500  50.1200 H     1   SOL   0.4170
12693   HW2   9.3100  15.6000  50.7500 H     1   SOL   0.4170
12694    OW   4.7900  10.6100  60.4100 O     1   SOL  -0.8340
12695   HW1   4.1800   9.9800  60.0200 H     1   SOL   0.4170
12696   HW2   4.5600  10.6400  61.3300 H     1   SOL   0.4170
12697    OW  41.7400  18.3400  51.0100 O     1   SOL  -0.8340
12698   HW1  40.7800  18.3700  51.0700 H     1   SOL   0.4170
12699   HW2  41.9400  18.7600  50.1700 H     1   SOL   0.4170
12700    OW  33.6500   7.8600  52.2800 O     1   SOL  -0.8340
12701   HW1  34.0400   8.2700  51.5100 H     1   SOL   0.4170
12702   HW2  33.8800   6.9400  52.2100 H     1   SOL   0.4170
12703    OW  15.1500   2.5600  52.4600 O     1   SOL  -0.8340
12704   HW1  14.7100   1.7600  52.1700 H     1   SOL   0.4170
12705   HW2  16.0600   2.2900  52.5900 H     1   SOL   0.4170
12706    OW  10.8600  29.3900  61.5700 O     1   SOL  -0.8340
12707   HW1  11.0200  29.0800  60.6800 H     1   SOL   0.4170
12708   HW2  11.2500  28.7200  62.1400 H     1   SOL   0.4170
12709    OW  25.3400   0.9800  51.8000 O     1   SOL  -0.8340
12710   HW1  26.0800   1.1000  52.4000 H     1   SOL   0.4170
12711   HW2  24.8400   0.2600  52.1800 H     1   SOL   0.4170
12712    OW  24.1300  39.1800  51.2600 O     1   SOL  -0.8340
12713   HW1  24.7100  38.6000  51.7600 H     1   SOL   0.4170
12714   HW2  23.3300  38.6700  51.1400 H     1   SOL   0.4170
12715    OW  37.1400  18.8000  29.7000 O     1   SOL  -0.8340
12716   HW1  37.2500  19.2300  30.5500 H     1   SOL   0.4170
12717   HW2  37.5300  19.4100  29.0700 H     1   SOL   0.4170
12718    OW  31.9400   9.3200  66.4100 O     1   SOL  -0.8340
12719   HW1  31.8700   8.6700  65.7000 H     1   SOL   0.4170
12720   HW2  31.7300  10.1500  65.9800 H     1   SOL   0.4170
12721    OW  34.0700  32.3400  77.1100 O     1   SOL  -0.8340
12722   HW1  35.0200  32.2700  77.0200 H     1   SOL   0.4170
12723   HW2  33.7900  31.4600  77.3800 H     1   SOL   0.4170
12724    OW  38.8900   0.4200  69.6100 O     1   SOL  -0.8340
12725   HW1  39.2300   0.1300  68.7700 H     1   SOL   0.4170
12726   HW2  38.5900  -0.3900  70.0300 H     1   SOL   0.4170
12727    OW   4.7100  21.4800  64.6800 O     1   SOL  -0.8340
12728   HW1   4.6000  21.9900  63.8700 H     1   SOL   0.4170
12729   HW2   3.9100  20.9600  64.7400 H     1   SOL   0.4170
12730    OW  42.4900  23.7800  55.9800 O     1   SOL  -0.8340
12731   HW1  42.9100  24.3700  55.3600 H     1   SOL   0.4170
12732   HW2  41.6800  23.5100  55.5500 H     1   SOL   0.4170
12733    OW  22.3100  40.3600  65.7000 O     1   SOL  -0.8340
12734   HW1  22.0900  39.4500  65.9000 H     1   SOL   0.4170
12735   HW2  23.2600  40.3900  65.7500 H     1   SOL   0.4170
12736    OW   6.8600  25.6800  63.5000 O     1   SOL  -0.8340
12737   HW1   6.1200  26.2500  63.7000 H     1   SOL   0.4170
12738   HW2   7.6400  26.2100  63.6900 H     1   SOL   0.4170
12739    OW  40.7500  13.2000  59.1700 O     1   SOL  -0.8340
12740   HW1  40.8800  12.7900  60.0200 H     1   SOL   0.4170
12741   HW2  41.2000  12.6300  58.5500 H     1   SOL   0.4170
12742    OW  42.9000  37.1800  76.5800 O     1   SOL  -0.8340
12743   HW1  42.8200  37.8200  75.8600 H     1   SOL   0.4170
12744   HW2  42.6000  37.6600  77.3500 H     1   SOL   0.4170
12745    OW  40.5400   7.5900  71.1100 O     1   SOL  -0.8340
12746   HW1  40.7400   8.4400  71.4900 H     1   SOL   0.4170
12747   HW2  41.0500   6.9600  71.6300 H     1   SOL   0.4170
12748    OW  41.9400  17.1600  69.6900 O     1   SOL  -0.8340
12749   HW1  42.3000  16.3400  70.0200 H     1   SOL   0.4170
12750   HW2  41.7800  17.6800  70.4800 H     1   SOL   0.4170
12751    OW  11.6000   9.1700  55.0300 O     1   SOL  -0.8340
12752   HW1  11.6000   9.1600  55.9900 H     1   SOL   0.4170
12753   HW2  11.1100   8.3800  54.7900 H     1   SOL   0.4170
12754    OW   2.1100   3.2900  72.5200 O     1   SOL  -0.8340
12755   HW1   2.9400   2.9800  72.1800 H     1   SOL   0.4170
12756   HW2   1.9100   4.0700  72.0000 H     1   SOL   0.4170
12757    OW  36.4900   2.5500  76.8300 O     1   SOL  -0.8340
12758   HW1  37.4100   2.7900  76.7300 H     1   SOL   0.4170
12759   HW2  36.0400   3.3800  77.0100 H     1   SOL   0.4170
12760    OW   8.6700  15.8100  70.9700 O     1   SOL  -0.8340
12761   HW1   9.0800  14.9600  71.1100 H     1   SOL   0.4170
12762   HW2   7.7800  15.7000  71.3100 H     1   SOL   0.4170
12763    OW  31.7300  23.1800  77.0100 O     1   SOL  -0.8340
12764   HW1  32.2500  22.7400  76.3400 H     1   SOL   0.4170
12765   HW2  32.3100  23.2000  77.7800 H     1   SOL   0.4170
12766    OW  30.9400   9.9300  61.1100 O     1   SOL  -0.8340
12767   HW1  31.6300  10.2000  60.5000 H     1   SOL   0.4170
12768   HW2  30.9200   8.9800  61.0500 H     1   SOL   0.4170
12769    OW   5.8900   1.6600  74.6700 O     1   SOL  -0.8340
12770   HW1   4.9600   1.8300  74.8500 H     1   SOL   0.4170
12771   HW2   6.3100   1.6800  75.5300 H     1   SOL   0.4170
12772    OW  36.9200  12.6800  64.8600 O     1   SOL  -0.8340
12773   HW1  36.2500  13.3700  64.9200 H     1   SOL   0.4170
12774   HW2  36.4200  11.8600  64.8700 H     1   SOL   0.4170
12775    OW  32.1600  15.8600  74.3400 O     1   SOL  -0.8340
12776   HW1  32.6300  16.2800  75.0600 H     1   SOL   0.4170
12777   HW2  32.8500  15.6500  73.7000 H     1   SOL   0.4170
12778    OW  30.7600   5.0300  70.6500 O     1   SOL  -0.8340
12779   HW1  30.1300   5.7300  70.4700 H     1   SOL   0.4170
12780   HW2  30.8200   5.0000  71.6100 H     1   SOL   0.4170
12781    OW  36.4400  13.2200  69.0500 O     1   SOL  -0.8340
12782   HW1  36.1800  13.7500  68.3000 H     1   SOL   0.4170
12783   HW2  36.0900  12.3500  68.8600 H     1   SOL   0.4170
12784    OW  42.4000   2.5300  76.9500 O     1   SOL  -0.8340
12785   HW1  41.5600   2.1600  77.2300 H     1   SOL   0.4170
12786   HW2  42.2200   3.4500  76.7700 H     1   SOL   0.4170
12787    OW   4.7700  31.9100  72.0700 O     1   SOL  -0.8340
12788   HW1   5.6200  31.8800  71.6500 H     1   SOL   0.4170
12789   HW2   4.3100  32.6300  71.6300 H     1   SOL   0.4170
12790    OW  42.9900   9.2000  77.0700 O     1   SOL  -0.8340
12791   HW1  43.4500  10.0400  77.1000 H     1   SOL   0.4170
12792   HW2  43.7000   8.5500  77.1000 H     1   SOL   0.4170
12793    OW  26.0700  10.9100  67.1700 O     1   SOL  -0.8340
12794   HW1  25.6600  11.6900  66.8000 H     1   SOL   0.4170
12795   HW2  26.7700  10.6900  66.5600 H     1   SOL   0.4170
12796    OW   2.7100  11.0500  58.5400 O     1   SOL  -0.8340
12797   HW1   3.4600  11.6400  58.5400 H     1   SOL   0.4170
12798   HW2   2.0100  11.5400  58.9700 H     1   SOL   0.4170
12799    OW   4.9500  15.1200  72.1000 O     1   SOL  -0.8340
12800   HW1   5.2300  16.0100  72.2900 H     1   SOL   0.4170
12801   HW2   5.5000  14.5700  72.6500 H     1   SOL   0.4170
12802    OW  29.7200   2.7500  68.9400 O     1   SOL  -0.8340
12803   HW1  29.9200   3.3100  69.7000 H     1   SOL   0.4170
12804   HW2  30.2100   1.9500  69.1000 H     1   SOL   0.4170
12805    OW   2.0400   2.6500  76.8400 O     1   SOL  -0.8340
12806   HW1   2.1600   1.8100  77.2800 H     1   SOL   0.4170
12807   HW2   1.1000   2.6800  76.6400 H     1   SOL   0.4170
12808    OW   3.1200  14.4400  55.9400 O     1   SOL  -0.8340
12809   HW1   3.5800  14.5900  56.7600 H     1   SOL   0.4170
12810   HW2   3.6000  14.9700  55.3000 H     1   SOL   0.4170
12811    OW  25.3500   8.0900  55.6700 O     1   SOL  -0.8340
12812   HW1  26.0700   8.7300  55.7300 H     1   SOL   0.4170
12813   HW2  24.6100   8.6000  55.3500 H     1   SOL   0.4170
12814    OW  36.9900   6.9700  67.4500 O     1   SOL  -0.8340
12815   HW1  37.3000   7.5900  66.7900 H     1   SOL   0.4170
12816   HW2  36.2300   7.4000  67.8500 H     1   SOL   0.4170
12817    OW  36.0000  16.5100  76.9700 O     1   SOL  -0.8340
12818   HW1  35.2100  15.9800  77.0400 H     1   SOL   0.4170
12819   HW2  36.0000  16.8300  76.0700 H     1   SOL   0.4170
12820    OW  20.2200   1.9600  50.3800 O     1   SOL  -0.8340
12821   HW1  19.6800   2.5500  49.8500 H     1   SOL   0.4170
12822   HW2  19.6300   1.2600  50.6500 H     1   SOL   0.4170
12823    OW   5.8800  17.5000  51.2600 O     1   SOL  -0.8340
12824   HW1   6.5300  17.2200  50.6200 H     1   SOL   0.4170
12825   HW2   5.6000  18.3700  50.9600 H     1   SOL   0.4170
12826    OW  12.0900  21.7900  69.3800 O     1   SOL  -0.8340
12827   HW1  12.0700  21.9900  70.3200 H     1   SOL   0.4170
12828   HW2  12.6500  21.0200  69.3200 H     1   SOL   0.4170
12829    OW  39.6800   5.3400  67.7400 O     1   SOL  -0.8340
12830   HW1  40.0300   6.0900  68.2300 H     1   SOL   0.4170
12831   HW2  38.7400   5.5100  67.6900 H     1   SOL   0.4170
12832    OW  14.5000  41.2500  68.2200 O     1   SOL  -0.8340
12833   HW1  14.3000  40.6900  67.4700 H     1   SOL   0.4170
12834   HW2  13.7000  41.7700  68.3500 H     1   SOL   0.4170
12835    OW  20.8000  27.5100  43.2600 O     1   SOL  -0.8340
12836   HW1  21.3900  26.8400  42.8900 H     1   SOL   0.4170
12837   HW2  20.0900  27.0100  43.6500 H     1   SOL   0.4170
12838    OW   4.8300  39.4200  74.0200 O     1   SOL  -0.8340
12839   HW1   5.3000  40.1600  73.6500 H     1   SOL   0.4170
12840   HW2   3.9200  39.5400  73.7400 H     1   SOL   0.4170
12841    OW  41.4900  38.4100  50.8500 O     1   SOL  -0.8340
12842   HW1  41.0200  38.9700  51.4700 H     1   SOL   0.4170
12843   HW2  40.9400  38.4100  50.0700 H     1   SOL   0.4170
12844    OW  38.0600  14.6000  77.1300 O     1   SOL  -0.8340
12845   HW1  37.4000  15.2700  76.9500 H     1   SOL   0.4170
12846   HW2  37.5800  13.7800  77.1800 H     1   SOL   0.4170
12847    OW  42.4000   7.1000  58.7500 O     1   SOL  -0.8340
12848   HW1  42.5100   6.2600  58.3000 H     1   SOL   0.4170
12849   HW2  43.1800   7.6100  58.5200 H     1   SOL   0.4170
12850    OW  42.3500  30.5000  71.1800 O     1   SOL  -0.8340
12851   HW1  41.6200  29.9200  70.9500 H     1   SOL   0.4170
12852   HW2  42.7900  30.0500  71.9000 H     1   SOL   0.4170
12853    OW  31.4000  32.9700  46.4200 O     1   SOL  -0.8340
12854   HW1  31.0800  33.3300  45.5900 H     1   SOL   0.4170
12855   HW2  31.6100  32.0600  46.2300 H     1   SOL   0.4170
12856    OW  41.1100   7.4100  76.6400 O     1   SOL  -0.8340
12857   HW1  40.3400   7.8300  77.0200 H     1   SOL   0.4170
12858   HW2  41.8300   8.0200  76.8100 H     1   SOL   0.4170
12859    OW  26.8900  15.5900  67.4700 O     1   SOL  -0.8340
12860   HW1  26.4300  16.3200  67.0600 H     1   SOL   0.4170
12861   HW2  27.7800  15.6300  67.1200 H     1   SOL   0.4170
12862    OW   1.0000   6.1100  73.4300 O     1   SOL  -0.8340
12863   HW1   1.6300   5.4000  73.3200 H     1   SOL   0.4170
12864   HW2   1.5300   6.8600  73.7200 H     1   SOL   0.4170
12865    OW   3.6200   5.1500  77.1700 O     1   SOL  -0.8340
12866   HW1   3.0500   4.5100  77.6000 H     1   SOL   0.4170
12867   HW2   3.6100   4.9000  76.2400 H     1   SOL   0.4170
12868    OW  37.9400   9.9600  74.5500 O     1   SOL  -0.8340
12869   HW1  37.1300   9.4500  74.5600 H     1   SOL   0.4170
12870   HW2  37.9100  10.4400  73.7200 H     1   SOL   0.4170
12871    OW  41.9900   4.8100  66.3400 O     1   SOL  -0.8340
12872   HW1  41.7500   5.0700  65.4500 H     1   SOL   0.4170
12873   HW2  41.1500   4.7700  66.8100 H     1   SOL   0.4170
12874    OW  37.9700   0.1600  76.6400 O     1   SOL  -0.8340
12875   HW1  37.1900   0.5500  77.0500 H     1   SOL   0.4170
12876   HW2  37.6200  -0.4300  75.9800 H     1   SOL   0.4170
12877    OW  29.6500  13.6500  73.9100 O     1   SOL  -0.8340
12878   HW1  30.1500  13.7600  74.7100 H     1   SOL   0.4170
12879   HW2  28.7600  13.9200  74.1400 H     1   SOL   0.4170
12880    OW  37.5100  41.3900  70.1600 O     1   SOL  -0.8340
12881   HW1  36.9200  40.6500  69.9900 H     1   SOL   0.4170
12882   HW2  37.1700  41.7800  70.9700 H     1   SOL   0.4170
12883    OW  40.9300  10.0300  72.3500 O     1   SOL  -0.8340
12884   HW1  40.8500  10.1600  73.2900 H     1   SOL   0.4170
12885   HW2  41.0500  10.9100  71.9900 H     1   SOL   0.4170
12886    OW  36.3900  12.6900  77.1900 O     1   SOL  -0.8340
12887   HW1  35.9600  11.8500  77.3400 H     1   SOL   0.4170
12888   HW2  35.6800  13.3200  77.1300 H     1   SOL   0.4170
12889    OW  40.4500  30.5500  76.4800 O     1   SOL  -0.8340
12890   HW1  40.8000  31.4300  76.3700 H     1   SOL   0.4170
12891   HW2  39.5200  30.6300  76.2700 H     1   SOL   0.4170
12892    OW  40.4600   4.2600  74.8300 O     1   SOL  -0.8340
12893   HW1  40.3600   3.4600  74.3000 H     1   SOL   0.4170
12894   HW2  41.3800   4.2400  75.1100 H     1   SOL   0.4170
12895    OW  34.1100  14.2800  76.9900 O     1   SOL  -0.8340
12896   HW1  33.6900  13.4400  77.1600 H     1   SOL   0.4170
12897   HW2  33.4200  14.9300  77.1300 H     1   SOL   0.4170
12898    OW  39.6600  19.6500   6.4600 O     1   SOL  -0.8340
12899   HW1  39.9600  18.7500   6.6300 H     1   SOL   0.4170
12900   HW2  40.4700  20.1600   6.4300 H     1   SOL   0.4170
12901    OW  36.6800  17.2400   6.9100 O     1   SOL  -0.8340
12902   HW1  36.9300  18.1300   6.7000 H     1   SOL   0.4170
12903   HW2  36.1600  17.3200   7.7100 H     1   SOL   0.4170
12904    OW  37.8700  19.9200  20.9700 O     1   SOL  -0.8340
12905   HW1  38.5000  19.4100  20.4800 H     1   SOL   0.4170
12906   HW2  37.4300  20.4600  20.3100 H     1   SOL   0.4170
12907    OW  34.0400  18.8100  23.8300 O     1   SOL  -0.8340
12908   HW1  34.8000  18.9400  23.2700 H     1   SOL   0.4170
12909   HW2  33.7300  17.9300  23.6300 H     1   SOL   0.4170
12910    OW  36.7700  23.0000   6.6600 O     1   SOL  -0.8340
12911   HW1  37.7000  22.8700   6.8200 H     1   SOL   0.4170
12912   HW2  36.4100  22.1200   6.5600 H     1   SOL   0.4170
12913    OW  35.9000  18.0400  26.9600 O     1   SOL  -0.8340
12914   HW1  36.5700  17.8100  26.3200 H     1   SOL   0.4170
12915   HW2  36.3900  18.2300  27.7600 H     1   SOL   0.4170
12916    OW  28.7900  33.6300  11.5100 O     1   SOL  -0.8340
12917   HW1  28.9000  33.2300  10.6500 H     1   SOL   0.4170
12918   HW2  27.9700  33.2700  11.8500 H     1   SOL   0.4170
12919    OW   5.9400  12.5000  35.0500 O     1   SOL  -0.8340
12920   HW1   5.9300  13.1200  35.7900 H     1   SOL   0.4170
12921   HW2   6.8600  12.4500  34.8000 H     1   SOL   0.4170
12922    OW  37.9800  28.5100   6.8000 O     1   SOL  -0.8340
12923   HW1  38.8800  28.6800   6.5100 H     1   SOL   0.4170
12924   HW2  37.7800  27.6300   6.4700 H     1   SOL   0.4170
12925    OW  28.2200  24.9800  20.8700 O     1   SOL  -0.8340
12926   HW1  29.1500  24.8900  21.0800 H     1   SOL   0.4170
12927   HW2  27.8200  24.1800  21.2000 H     1   SOL   0.4170
12928    OW   0.4300  28.3700  14.7300 O     1   SOL  -0.8340
12929   HW1   1.3600  28.2300  14.8700 H     1   SOL   0.4170
12930   HW2   0.2100  27.8000  13.9900 H     1   SOL   0.4170
12931    OW   6.3800   0.2800  20.0900 O     1   SOL  -0.8340
12932   HW1   6.0300  -0.0600  20.9100 H     1   SOL   0.4170
12933   HW2   6.7700   1.1200  20.3300 H     1   SOL   0.4170
12934    OW  11.0500  16.5700  13.0500 O     1   SOL  -0.8340
12935   HW1  10.6700  15.7000  13.0800 H     1   SOL   0.4170
12936   HW2  10.3700  17.1500  13.3900 H     1   SOL   0.4170
12937    OW  42.8700  13.6700  19.2700 O     1   SOL  -0.8340
12938   HW1  43.4900  14.3100  19.6000 H     1   SOL   0.4170
12939   HW2  42.7000  13.9400  18.3600 H     1   SOL   0.4170
12940    OW  27.2600   2.5800  24.4400 O     1   SOL  -0.8340
12941   HW1  27.0200   1.6900  24.1600 H     1   SOL   0.4170
12942   HW2  26.8000   2.7000  25.2700 H     1   SOL   0.4170
12943    OW  41.6700  28.6500  11.8200 O     1   SOL  -0.8340
12944   HW1  42.5700  28.9700  11.7700 H     1   SOL   0.4170
12945   HW2  41.7600  27.7500  12.1400 H     1   SOL   0.4170
12946    OW   1.5200  22.8100   9.1700 O     1   SOL  -0.8340
12947   HW1   0.8200  22.3100   8.7600 H     1   SOL   0.4170
12948   HW2   1.8300  23.4100   8.4900 H     1   SOL   0.4170
12949    OW  30.8500  35.1200  16.8000 O     1   SOL  -0.8340
12950   HW1  31.3100  34.3700  17.1800 H     1   SOL   0.4170
12951   HW2  30.4300  35.5500  17.5400 H     1   SOL   0.4170
12952    OW  42.5000  10.1800  14.4300 O     1   SOL  -0.8340
12953   HW1  42.0600   9.3300  14.3400 H     1   SOL   0.4170
12954   HW2  42.3500  10.4400  15.3300 H     1   SOL   0.4170
12955    OW  31.3800  24.4000  30.6900 O     1   SOL  -0.8340
12956   HW1  31.5700  24.6800  29.7900 H     1   SOL   0.4170
12957   HW2  32.0900  23.8000  30.9100 H     1   SOL   0.4170
12958    OW   4.9200  21.7600  15.1500 O     1   SOL  -0.8340
12959   HW1   5.2200  20.8500  15.0900 H     1   SOL   0.4170
12960   HW2   4.2700  21.8500  14.4500 H     1   SOL   0.4170
12961    OW  40.0600  16.7200  27.8100 O     1   SOL  -0.8340
12962   HW1  40.0600  16.7100  26.8500 H     1   SOL   0.4170
12963   HW2  39.1400  16.8500  28.0400 H     1   SOL   0.4170
12964    OW   1.2000  29.6900   6.8400 O     1   SOL  -0.8340
12965   HW1   0.6500  30.1800   7.4500 H     1   SOL   0.4170
12966   HW2   1.9800  30.2200   6.7300 H     1   SOL   0.4170
12967    OW  37.8500   3.1800  31.7000 O     1   SOL  -0.8340
12968   HW1  37.0900   2.7800  31.2700 H     1   SOL   0.4170
12969   HW2  37.8100   4.1000  31.4300 H     1   SOL   0.4170
12970    OW  40.8900  34.8600  18.5400 O     1   SOL  -0.8340
12971   HW1  39.9400  34.7900  18.6100 H     1   SOL   0.4170
12972   HW2  41.0600  34.8900  17.6000 H     1   SOL   0.4170
12973    OW  43.0300  22.8800  17.3500 O     1   SOL  -0.8340
12974   HW1  42.6600  22.0000  17.3600 H     1   SOL   0.4170
12975   HW2  42.4500  23.3900  17.9200 H     1   SOL   0.4170
12976    OW  35.6800  32.3100  22.5000 O     1   SOL  -0.8340
12977   HW1  36.3000  32.8300  23.0100 H     1   SOL   0.4170
12978   HW2  35.2800  31.7200  23.1300 H     1   SOL   0.4170
12979    OW  38.6500  28.9800  15.7900 O     1   SOL  -0.8340
12980   HW1  38.9000  29.1900  14.8900 H     1   SOL   0.4170
12981   HW2  39.4700  29.0300  16.2900 H     1   SOL   0.4170
12982    OW  40.7300  35.8700   7.2300 O     1   SOL  -0.8340
12983   HW1  41.6100  35.5800   7.4700 H     1   SOL   0.4170
12984   HW2  40.8700  36.4900   6.5200 H     1   SOL   0.4170
12985    OW  38.4300  18.0900  18.8300 O     1   SOL  -0.8340
12986   HW1  37.4900  18.2400  18.7400 H     1   SOL   0.4170
12987   HW2  38.8100  18.4400  18.0200 H     1   SOL   0.4170
12988    OW  29.8900  38.8700  30.2300 O     1   SOL  -0.8340
12989   HW1  30.1100  38.8400  31.1600 H     1   SOL   0.4170
12990   HW2  30.6500  38.5000  29.7800 H     1   SOL   0.4170
12991    OW  28.5100  26.2000  18.4100 O     1   SOL  -0.8340
12992   HW1  29.1600  25.5800  18.0700 H     1   SOL   0.4170
12993   HW2  28.3500  25.9200  19.3100 H     1   SOL   0.4170
12994    OW  37.9900  17.2600  25.1600 O     1   SOL  -0.8340
12995   HW1  37.6100  17.0800  24.3000 H     1   SOL   0.4170
12996   HW2  38.9300  17.1100  25.0400 H     1   SOL   0.4170
12997    OW  35.7900  35.1800  23.4200 O     1   SOL  -0.8340
12998   HW1  35.1100  34.6900  23.8900 H     1   SOL   0.4170
12999   HW2  35.3600  35.4800  22.6200 H     1   SOL   0.4170
13000    OW   1.1100  41.4300  19.7600 O     1   SOL  -0.8340
13001   HW1   1.2600  41.8800  20.6000 H     1   SOL   0.4170
13002   HW2   1.3700  40.5200  19.9300 H     1   SOL   0.4170
13003    OW  37.1400  19.8900   6.8600 O     1   SOL  -0.8340
13004   HW1  38.0400  20.1000   6.6200 H     1   SOL   0.4170
13005   HW2  37.1600  19.7700   7.8100 H     1   SOL   0.4170
13006    OW  32.3800  35.9000  25.4100 O     1   SOL  -0.8340
13007   HW1  33.2100  35.4400  25.2900 H     1   SOL   0.4170
13008   HW2  32.6100  36.8300  25.3300 H     1   SOL   0.4170
13009    OW  34.1400  18.0500  15.4700 O     1   SOL  -0.8340
13010   HW1  34.4600  17.1800  15.7200 H     1   SOL   0.4170
13011   HW2  33.6100  18.3300  16.2200 H     1   SOL   0.4170
13012    OW   1.8200  40.2400  10.0100 O     1   SOL  -0.8340
13013   HW1   1.0700  40.7700  10.2800 H     1   SOL   0.4170
13014   HW2   2.3500  40.8300   9.4700 H     1   SOL   0.4170
13015    OW  38.2500   9.6700  21.2300 O     1   SOL  -0.8340
13016   HW1  39.0900  10.0900  21.4200 H     1   SOL   0.4170
13017   HW2  38.3900   8.7500  21.4500 H     1   SOL   0.4170
13018    OW  29.8200  27.5000  27.6800 O     1   SOL  -0.8340
13019   HW1  29.6400  28.1900  28.3200 H     1   SOL   0.4170
13020   HW2  29.0200  26.9800  27.6400 H     1   SOL   0.4170
13021    OW   6.4500  16.6700  38.5100 O     1   SOL  -0.8340
13022   HW1   6.7800  16.0200  37.8900 H     1   SOL   0.4170
13023   HW2   5.5000  16.6700  38.3800 H     1   SOL   0.4170
13024    OW   3.4900  18.8600  17.8700 O     1   SOL  -0.8340
13025   HW1   3.3100  18.7300  16.9400 H     1   SOL   0.4170
13026   HW2   4.4200  18.6600  17.9700 H     1   SOL   0.4170
13027    OW  41.8500  10.8300  32.5600 O     1   SOL  -0.8340
13028   HW1  41.6700   9.9000  32.4600 H     1   SOL   0.4170
13029   HW2  42.7200  10.9600  32.1800 H     1   SOL   0.4170
13030    OW  42.7200  12.4700  21.6700 O     1   SOL  -0.8340
13031   HW1  42.8100  13.2100  22.2600 H     1   SOL   0.4170
13032   HW2  43.0100  12.8100  20.8200 H     1   SOL   0.4170
13033    OW  15.5600  27.3800  20.1200 O     1   SOL  -0.8340
13034   HW1  15.1300  27.5600  19.2900 H     1   SOL   0.4170
13035   HW2  15.4700  28.1900  20.6200 H     1   SOL   0.4170
13036    OW  36.0700  36.5300  47.1200 O     1   SOL  -0.8340
13037   HW1  36.1400  37.3500  46.6100 H     1   SOL   0.4170
13038   HW2  35.6400  35.9200  46.5200 H     1   SOL   0.4170
13039    OW  11.9800  14.8400  19.1600 O     1   SOL  -0.8340
13040   HW1  12.1700  15.3500  19.9500 H     1   SOL   0.4170
13041   HW2  12.8300  14.5400  18.8500 H     1   SOL   0.4170
13042    OW  40.0800  41.1000   8.5900 O     1   SOL  -0.8340
13043   HW1  40.6700  40.5600   9.1300 H     1   SOL   0.4170
13044   HW2  40.0000  41.9200   9.0800 H     1   SOL   0.4170
13045    OW   5.9900  37.0000  15.3400 O     1   SOL  -0.8340
13046   HW1   5.9100  37.8600  14.9300 H     1   SOL   0.4170
13047   HW2   5.2000  36.9200  15.8700 H     1   SOL   0.4170
13048    OW   4.9300   8.5700  30.3900 O     1   SOL  -0.8340
13049   HW1   4.0800   8.5200  29.9600 H     1   SOL   0.4170
13050   HW2   4.7200   8.6800  31.3100 H     1   SOL   0.4170
13051    OW  21.9000  12.5500  13.6100 O     1   SOL  -0.8340
13052   HW1  20.9800  12.6400  13.8600 H     1   SOL   0.4170
13053   HW2  21.9800  13.0800  12.8100 H     1   SOL   0.4170
13054    OW   7.8400  12.1600  38.8100 O     1   SOL  -0.8340
13055   HW1   8.5600  11.5800  38.5700 H     1   SOL   0.4170
13056   HW2   8.1000  12.5200  39.6600 H     1   SOL   0.4170
13057    OW   2.8300  34.1300  14.8700 O     1   SOL  -0.8340
13058   HW1   3.3900  34.5000  15.5500 H     1   SOL   0.4170
13059   HW2   2.8000  34.8100  14.1900 H     1   SOL   0.4170
13060    OW  35.3000  34.2100  41.3200 O     1   SOL  -0.8340
13061   HW1  36.1700  34.2200  40.9200 H     1   SOL   0.4170
13062   HW2  34.7200  34.5700  40.6400 H     1   SOL   0.4170
13063    OW  16.1700   9.1000  31.3100 O     1   SOL  -0.8340
13064   HW1  15.7600   8.3800  30.8400 H     1   SOL   0.4170
13065   HW2  16.9700   8.7200  31.6700 H     1   SOL   0.4170
13066    OW  22.6900   1.2900  32.9300 O     1   SOL  -0.8340
13067   HW1  22.8600   2.1700  32.6000 H     1   SOL   0.4170
13068   HW2  22.6000   0.7500  32.1500 H     1   SOL   0.4170
13069    OW   6.5000  11.3100  23.2700 O     1   SOL  -0.8340
13070   HW1   6.5800  11.3500  24.2200 H     1   SOL   0.4170
13071   HW2   7.0700  10.6000  23.0000 H     1   SOL   0.4170
13072    OW  33.0400  29.8200  23.8700 O     1   SOL  -0.8340
13073   HW1  32.2900  29.2200  23.8400 H     1   SOL   0.4170
13074   HW2  32.6500  30.6900  23.7100 H     1   SOL   0.4170
13075    OW  39.6600  14.6700  22.7300 O     1   SOL  -0.8340
13076   HW1  39.5300  14.9000  21.8100 H     1   SOL   0.4170
13077   HW2  38.7800  14.6600  23.1000 H     1   SOL   0.4170
13078    OW  10.9700  28.0700  20.9400 O     1   SOL  -0.8340
13079   HW1  11.6400  28.7400  21.1000 H     1   SOL   0.4170
13080   HW2  11.2800  27.6100  20.1500 H     1   SOL   0.4170
13081    OW   5.3700   2.4300  36.6100 O     1   SOL  -0.8340
13082   HW1   4.6500   2.0700  36.0800 H     1   SOL   0.4170
13083   HW2   5.9600   2.8200  35.9700 H     1   SOL   0.4170
13084    OW   2.6500  28.9300  43.5800 O     1   SOL  -0.8340
13085   HW1   1.7500  28.9800  43.9100 H     1   SOL   0.4170
13086   HW2   2.6900  29.5800  42.8800 H     1   SOL   0.4170
13087    OW   1.5800  14.3200  29.1900 O     1   SOL  -0.8340
13088   HW1   1.8200  15.1800  28.8500 H     1   SOL   0.4170
13089   HW2   0.6300  14.2600  29.0500 H     1   SOL   0.4170
13090    OW   3.5900  23.1700  44.7100 O     1   SOL  -0.8340
13091   HW1   3.4400  22.9500  45.6300 H     1   SOL   0.4170
13092   HW2   2.8600  23.7400  44.4700 H     1   SOL   0.4170
13093    OW   3.8100  12.3000  32.8600 O     1   SOL  -0.8340
13094   HW1   3.3100  13.1200  32.9000 H     1   SOL   0.4170
13095   HW2   4.5500  12.4400  33.4500 H     1   SOL   0.4170
13096    OW   1.0900  18.4300  19.5800 O     1   SOL  -0.8340
13097   HW1   1.9900  18.4100  19.2400 H     1   SOL   0.4170
13098   HW2   0.9400  17.5400  19.9000 H     1   SOL   0.4170
13099    OW   0.4600  36.5100  32.9300 O     1   SOL  -0.8340
13100   HW1  -0.2000  36.9100  33.5000 H     1   SOL   0.4170
13101   HW2   0.2200  35.5800  32.9000 H     1   SOL   0.4170
13102    OW  42.6900  37.8700  24.2600 O     1   SOL  -0.8340
13103   HW1  42.9200  37.4200  25.0700 H     1   SOL   0.4170
13104   HW2  41.8800  37.4500  23.9700 H     1   SOL   0.4170
13105    OW  37.2700  10.6500  32.1800 O     1   SOL  -0.8340
13106   HW1  37.9900  11.2800  32.1400 H     1   SOL   0.4170
13107   HW2  37.7000   9.8000  32.2300 H     1   SOL   0.4170
13108    OW  13.2500  41.7300  23.5800 O     1   SOL  -0.8340
13109   HW1  14.1600  41.5100  23.7600 H     1   SOL   0.4170
13110   HW2  13.0200  42.3900  24.2400 H     1   SOL   0.4170
13111    OW  25.6500  37.8000   9.3600 O     1   SOL  -0.8340
13112   HW1  25.7200  37.7700   8.4000 H     1   SOL   0.4170
13113   HW2  24.8000  37.3900   9.5400 H     1   SOL   0.4170
13114    OW  26.3900  21.0100  22.4200 O     1   SOL  -0.8340
13115   HW1  25.5900  21.1400  21.9000 H     1   SOL   0.4170
13116   HW2  26.6400  21.8900  22.6900 H     1   SOL   0.4170
13117    OW  17.8000  13.3100  33.7200 O     1   SOL  -0.8340
13118   HW1  17.6400  13.5900  34.6200 H     1   SOL   0.4170
13119   HW2  17.8800  12.3600  33.7800 H     1   SOL   0.4170
13120    OW  39.9100  21.6400  23.2300 O     1   SOL  -0.8340
13121   HW1  39.0300  21.6800  23.6000 H     1   SOL   0.4170
13122   HW2  40.3100  22.4800  23.4800 H     1   SOL   0.4170
13123    OW  10.4700  24.2300  46.1400 O     1   SOL  -0.8340
13124   HW1  11.3500  24.6000  46.2600 H     1   SOL   0.4170
13125   HW2  10.4200  24.0400  45.2000 H     1   SOL   0.4170
13126    OW  17.7100  29.0900  23.6100 O     1   SOL  -0.8340
13127   HW1  17.6100  28.8200  24.5200 H     1   SOL   0.4170
13128   HW2  17.6300  30.0400  23.6300 H     1   SOL   0.4170
13129    OW  36.2900  34.0700  49.3800 O     1   SOL  -0.8340
13130   HW1  36.2900  33.3900  48.7100 H     1   SOL   0.4170
13131   HW2  36.5600  34.8600  48.9300 H     1   SOL   0.4170
13132    OW  28.9200  16.8300  23.4800 O     1   SOL  -0.8340
13133   HW1  29.0000  16.1900  22.7700 H     1   SOL   0.4170
13134   HW2  29.3800  16.4300  24.2200 H     1   SOL   0.4170
13135    OW   0.6000  42.4000  26.6000 O     1   SOL  -0.8340
13136   HW1   0.2800  42.2300  25.7200 H     1   SOL   0.4170
13137   HW2  -0.1300  42.1800  27.1800 H     1   SOL   0.4170
13138    OW   1.7900  17.2000  28.1500 O     1   SOL  -0.8340
13139   HW1   1.7300  18.0200  28.6400 H     1   SOL   0.4170
13140   HW2   2.7300  17.0700  28.0200 H     1   SOL   0.4170
13141    OW  30.5100  36.3000  34.6000 O     1   SOL  -0.8340
13142   HW1  29.6700  35.8400  34.6500 H     1   SOL   0.4170
13143   HW2  30.3200  37.0900  34.1000 H     1   SOL   0.4170
13144    OW  41.8400  17.0200  15.5700 O     1   SOL  -0.8340
13145   HW1  42.4900  17.6400  15.2400 H     1   SOL   0.4170
13146   HW2  41.0000  17.4400  15.3700 H     1   SOL   0.4170
13147    OW  40.8000  15.1600  34.6600 O     1   SOL  -0.8340
13148   HW1  40.2400  15.7500  35.1600 H     1   SOL   0.4170
13149   HW2  40.1900  14.6700  34.1000 H     1   SOL   0.4170
13150    OW  38.6500  11.6500  43.3200 O     1   SOL  -0.8340
13151   HW1  39.2300  12.3800  43.1200 H     1   SOL   0.4170
13152   HW2  38.6500  11.1200  42.5200 H     1   SOL   0.4170
13153    OW   8.6100  36.8900  41.0100 O     1   SOL  -0.8340
13154   HW1   8.3100  36.4500  41.8000 H     1   SOL   0.4170
13155   HW2   7.9700  37.5800  40.8600 H     1   SOL   0.4170
13156    OW  40.9000   1.9400  45.2900 O     1   SOL  -0.8340
13157   HW1  40.7000   2.7000  44.7400 H     1   SOL   0.4170
13158   HW2  40.2900   2.0200  46.0200 H     1   SOL   0.4170
13159    OW  30.1000  16.2700  29.0300 O     1   SOL  -0.8340
13160   HW1  29.8600  16.2800  29.9600 H     1   SOL   0.4170
13161   HW2  29.8800  17.1500  28.7200 H     1   SOL   0.4170
13162    OW  15.3900  17.1100  50.1200 O     1   SOL  -0.8340
13163   HW1  15.9600  17.4000  50.8300 H     1   SOL   0.4170
13164   HW2  14.8600  16.4100  50.5100 H     1   SOL   0.4170
13165    OW   0.9400  11.5100  25.9800 O     1   SOL  -0.8340
13166   HW1   0.3400  11.5700  25.2300 H     1   SOL   0.4170
13167   HW2   1.7800  11.8300  25.6400 H     1   SOL   0.4170
13168    OW   3.0200  13.2700  47.6500 O     1   SOL  -0.8340
13169   HW1   2.7800  12.9500  46.7800 H     1   SOL   0.4170
13170   HW2   2.2800  13.8200  47.9200 H     1   SOL   0.4170
13171    OW  36.6500  16.4700  33.1900 O     1   SOL  -0.8340
13172   HW1  35.8000  16.1500  32.9000 H     1   SOL   0.4170
13173   HW2  36.6200  17.4100  33.0100 H     1   SOL   0.4170
13174    OW   6.9300  21.4400  40.6000 O     1   SOL  -0.8340
13175   HW1   6.9500  21.7200  39.6800 H     1   SOL   0.4170
13176   HW2   6.2500  21.9800  41.0000 H     1   SOL   0.4170
13177    OW   9.2600  34.0100  36.5900 O     1   SOL  -0.8340
13178   HW1   9.0400  34.0400  35.6600 H     1   SOL   0.4170
13179   HW2   8.8100  33.2400  36.9300 H     1   SOL   0.4170
13180    OW  39.2900  41.6500  37.8900 O     1   SOL  -0.8340
13181   HW1  39.5700  41.2700  37.0600 H     1   SOL   0.4170
13182   HW2  39.0200  40.9000  38.4200 H     1   SOL   0.4170
13183    OW  33.8100  33.9400  47.4800 O     1   SOL  -0.8340
13184   HW1  33.7700  34.1500  48.4100 H     1   SOL   0.4170
13185   HW2  32.9400  33.5800  47.2900 H     1   SOL   0.4170
13186    OW  37.3900  36.2200  44.4100 O     1   SOL  -0.8340
13187   HW1  36.6500  35.7000  44.1000 H     1   SOL   0.4170
13188   HW2  37.2000  37.1100  44.1300 H     1   SOL   0.4170
13189    OW   0.2000  25.8800  47.9500 O     1   SOL  -0.8340
13190   HW1  -0.1400  26.4900  47.2900 H     1   SOL   0.4170
13191   HW2  -0.5800  25.5300  48.3700 H     1   SOL   0.4170
13192    OW   1.2400  11.0900  23.1300 O     1   SOL  -0.8340
13193   HW1   2.1100  11.1200  22.7300 H     1   SOL   0.4170
13194   HW2   0.6500  11.4300  22.4500 H     1   SOL   0.4170
13195    OW  41.8500  39.5100  54.5200 O     1   SOL  -0.8340
13196   HW1  42.1500  39.6300  55.4200 H     1   SOL   0.4170
13197   HW2  41.7000  38.5700  54.4400 H     1   SOL   0.4170
13198    OW   5.1700  23.0200  48.0100 O     1   SOL  -0.8340
13199   HW1   5.8100  22.8200  47.3200 H     1   SOL   0.4170
13200   HW2   5.0900  23.9800  47.9900 H     1   SOL   0.4170
13201    OW   0.8500  18.5100  62.8800 O     1   SOL  -0.8340
13202   HW1   0.5900  19.4100  63.0800 H     1   SOL   0.4170
13203   HW2   1.6100  18.3600  63.4400 H     1   SOL   0.4170
13204    OW   2.5900  35.5000  49.0400 O     1   SOL  -0.8340
13205   HW1   2.9700  36.3600  49.2200 H     1   SOL   0.4170
13206   HW2   2.3300  35.1800  49.9100 H     1   SOL   0.4170
13207    OW  10.6400  23.6700  27.4100 O     1   SOL  -0.8340
13208   HW1  11.1200  23.9500  26.6300 H     1   SOL   0.4170
13209   HW2  10.1300  22.9200  27.1200 H     1   SOL   0.4170
13210    OW   6.5100  14.1100  37.3700 O     1   SOL  -0.8340
13211   HW1   6.8400  13.3700  37.8800 H     1   SOL   0.4170
13212   HW2   5.5900  14.1800  37.6100 H     1   SOL   0.4170
13213    OW   8.1800  17.8000  62.6800 O     1   SOL  -0.8340
13214   HW1   7.7300  18.2600  63.3900 H     1   SOL   0.4170
13215   HW2   7.8500  18.2000  61.8800 H     1   SOL   0.4170
13216    OW   5.6300  36.9100  62.0800 O     1   SOL  -0.8340
13217   HW1   5.5600  36.1700  61.4800 H     1   SOL   0.4170
13218   HW2   6.0400  37.6000  61.5600 H     1   SOL   0.4170
13219    OW   8.6100  29.6400  40.1300 O     1   SOL  -0.8340
13220   HW1   7.9600  29.4000  39.4700 H     1   SOL   0.4170
13221   HW2   8.4400  30.5600  40.3000 H     1   SOL   0.4170
13222    OW  10.2500  16.6700  23.9600 O     1   SOL  -0.8340
13223   HW1  10.9500  16.0200  24.0400 H     1   SOL   0.4170
13224   HW2  10.7100  17.5100  23.9400 H     1   SOL   0.4170
13225    OW  12.8900   0.2100  48.1800 O     1   SOL  -0.8340
13226   HW1  11.9600   0.1900  47.9900 H     1   SOL   0.4170
13227   HW2  13.0100   0.9700  48.7600 H     1   SOL   0.4170
13228    OW  21.9200  15.6200  43.1600 O     1   SOL  -0.8340
13229   HW1  22.8500  15.7200  42.9700 H     1   SOL   0.4170
13230   HW2  21.8400  15.8300  44.0900 H     1   SOL   0.4170
13231    OW   4.0600   9.4200  32.9600 O     1   SOL  -0.8340
13232   HW1   4.5200   9.3500  33.8000 H     1   SOL   0.4170
13233   HW2   3.9100  10.3600  32.8500 H     1   SOL   0.4170
13234    OW  13.6600  14.8900  47.8000 O     1   SOL  -0.8340
13235   HW1  13.7000  13.9500  47.6300 H     1   SOL   0.4170
13236   HW2  13.4200  14.9600  48.7200 H     1   SOL   0.4170
13237    OW  36.0900  22.8800  55.3500 O     1   SOL  -0.8340
13238   HW1  36.4400  22.0000  55.2100 H     1   SOL   0.4170
13239   HW2  36.6300  23.2400  56.0600 H     1   SOL   0.4170
13240    OW  22.1000  32.0100  50.8000 O     1   SOL  -0.8340
13241   HW1  22.0600  32.9600  50.9600 H     1   SOL   0.4170
13242   HW2  22.7800  31.7000  51.4000 H     1   SOL   0.4170
13243    OW  38.3000  33.8900  45.3700 O     1   SOL  -0.8340
13244   HW1  37.8600  34.7300  45.2300 H     1   SOL   0.4170
13245   HW2  37.6600  33.3700  45.8500 H     1   SOL   0.4170
13246    OW  18.2000   9.7900  42.7800 O     1   SOL  -0.8340
13247   HW1  18.8500   9.2800  43.2600 H     1   SOL   0.4170
13248   HW2  17.5700  10.0700  43.4400 H     1   SOL   0.4170
13249    OW  29.0700  35.8700  55.9900 O     1   SOL  -0.8340
13250   HW1  29.5100  35.0800  56.3000 H     1   SOL   0.4170
13251   HW2  29.5900  36.1400  55.2300 H     1   SOL   0.4170
13252    OW   1.8700  27.5800  65.7000 O     1   SOL  -0.8340
13253   HW1   1.8700  28.4500  66.0900 H     1   SOL   0.4170
13254   HW2   2.6600  27.5500  65.1600 H     1   SOL   0.4170
13255    OW  40.6700  39.8300  45.3500 O     1   SOL  -0.8340
13256   HW1  40.8000  38.9900  45.7900 H     1   SOL   0.4170
13257   HW2  41.0800  40.4700  45.9300 H     1   SOL   0.4170
13258    OW  40.9500  29.8500  41.6500 O     1   SOL  -0.8340
13259   HW1  41.4100  29.6700  40.8200 H     1   SOL   0.4170
13260   HW2  40.0500  29.5700  41.4900 H     1   SOL   0.4170
13261    OW  13.7700  33.9400  50.7600 O     1   SOL  -0.8340
13262   HW1  13.4000  33.7000  49.9200 H     1   SOL   0.4170
13263   HW2  13.6700  33.1600  51.3000 H     1   SOL   0.4170
13264    OW  43.1700  21.6500  41.4700 O     1   SOL  -0.8340
13265   HW1  43.3900  20.7500  41.2400 H     1   SOL   0.4170
13266   HW2  44.0200  22.0900  41.5300 H     1   SOL   0.4170
13267    OW  26.2800  26.5900  42.1400 O     1   SOL  -0.8340
13268   HW1  25.5400  26.9900  41.6700 H     1   SOL   0.4170
13269   HW2  26.3200  25.7000  41.8000 H     1   SOL   0.4170
13270    OW  38.9300  28.9700  29.1300 O     1   SOL  -0.8340
13271   HW1  38.5600  29.2400  28.2900 H     1   SOL   0.4170
13272   HW2  39.6600  28.4000  28.9000 H     1   SOL   0.4170
13273    OW  14.4900  30.4700  46.4000 O     1   SOL  -0.8340
13274   HW1  14.9700  30.3800  45.5700 H     1   SOL   0.4170
13275   HW2  15.0100  29.9700  47.0300 H     1   SOL   0.4170
13276    OW   7.1600  34.2500  69.0800 O     1   SOL  -0.8340
13277   HW1   6.2400  34.4000  68.8700 H     1   SOL   0.4170
13278   HW2   7.1700  33.4200  69.5600 H     1   SOL   0.4170
13279    OW  21.3400  20.7000  36.9600 O     1   SOL  -0.8340
13280   HW1  21.9100  20.6700  37.7300 H     1   SOL   0.4170
13281   HW2  21.5300  21.5400  36.5500 H     1   SOL   0.4170
13282    OW  15.6800   3.6000  67.9600 O     1   SOL  -0.8340
13283   HW1  16.2500   2.8900  67.6700 H     1   SOL   0.4170
13284   HW2  15.8800   3.6900  68.8900 H     1   SOL   0.4170
13285    OW  25.7900  32.1300  51.7500 O     1   SOL  -0.8340
13286   HW1  25.0800  31.6700  52.2000 H     1   SOL   0.4170
13287   HW2  26.2800  32.5700  52.4500 H     1   SOL   0.4170
13288    OW  13.3900   3.7600  54.2500 O     1   SOL  -0.8340
13289   HW1  14.1100   3.5100  53.6700 H     1   SOL   0.4170
13290   HW2  13.3200   4.7100  54.1600 H     1   SOL   0.4170
13291    OW  41.4600  41.1600  41.3700 O     1   SOL  -0.8340
13292   HW1  40.8900  40.4600  41.7000 H     1   SOL   0.4170
13293   HW2  41.5200  41.7700  42.1100 H     1   SOL   0.4170
13294    OW  30.1700  30.9900  56.3600 O     1   SOL  -0.8340
13295   HW1  31.0200  30.8600  56.7900 H     1   SOL   0.4170
13296   HW2  30.2900  30.6400  55.4800 H     1   SOL   0.4170
13297    OW  41.4100  10.1100  47.1100 O     1   SOL  -0.8340
13298   HW1  40.6300   9.5900  46.9300 H     1   SOL   0.4170
13299   HW2  41.2000  10.9800  46.7900 H     1   SOL   0.4170
13300    OW  43.0800  23.8200  66.3600 O     1   SOL  -0.8340
13301   HW1  43.8400  24.4000  66.3900 H     1   SOL   0.4170
13302   HW2  42.9900  23.4900  67.2500 H     1   SOL   0.4170
13303    OW  23.7900  27.6600  41.2000 O     1   SOL  -0.8340
13304   HW1  23.0100  28.0000  40.7600 H     1   SOL   0.4170
13305   HW2  23.5300  26.7800  41.4900 H     1   SOL   0.4170
13306    OW  42.9800  12.8100  53.8200 O     1   SOL  -0.8340
13307   HW1  43.1600  13.7300  53.6400 H     1   SOL   0.4170
13308   HW2  43.5700  12.5800  54.5300 H     1   SOL   0.4170
13309    OW   2.8300  41.2900  66.2600 O     1   SOL  -0.8340
13310   HW1   1.9000  41.1700  66.4800 H     1   SOL   0.4170
13311   HW2   3.3000  40.9300  67.0100 H     1   SOL   0.4170
13312    OW  42.9800  22.1500  45.6600 O     1   SOL  -0.8340
13313   HW1  43.1500  22.9000  45.0900 H     1   SOL   0.4170
13314   HW2  43.4900  21.4400  45.2700 H     1   SOL   0.4170
13315    OW  40.2500  26.5400  53.2300 O     1   SOL  -0.8340
13316   HW1  41.1300  26.3500  53.5400 H     1   SOL   0.4170
13317   HW2  40.3800  27.0400  52.4300 H     1   SOL   0.4170
13318    OW  13.1300  11.1600  37.1100 O     1   SOL  -0.8340
13319   HW1  13.7600  11.2600  37.8200 H     1   SOL   0.4170
13320   HW2  13.5300  11.6200  36.3700 H     1   SOL   0.4170
13321    OW   4.0500  35.3800  68.2800 O     1   SOL  -0.8340
13322   HW1   3.3200  35.6900  67.7500 H     1   SOL   0.4170
13323   HW2   4.5100  36.1700  68.5500 H     1   SOL   0.4170
13324    OW   1.7200  15.3700  21.3800 O     1   SOL  -0.8340
13325   HW1   2.6100  15.0400  21.2600 H     1   SOL   0.4170
13326   HW2   1.6000  15.4000  22.3300 H     1   SOL   0.4170
13327    OW  23.3300  30.1600  58.5800 O     1   SOL  -0.8340
13328   HW1  24.0200  29.7100  58.0900 H     1   SOL   0.4170
13329   HW2  22.5500  30.0900  58.0200 H     1   SOL   0.4170
13330    OW   5.1900   2.8700  71.7800 O     1   SOL  -0.8340
13331   HW1   4.6900   2.4700  71.0700 H     1   SOL   0.4170
13332   HW2   5.7900   2.1800  72.0700 H     1   SOL   0.4170
13333    OW   3.2300  40.9400  63.3700 O     1   SOL  -0.8340
13334   HW1   2.6500  40.2300  63.0800 H     1   SOL   0.4170
13335   HW2   2.9500  41.1300  64.2700 H     1   SOL   0.4170
13336    OW  12.6300  28.1500  68.9900 O     1   SOL  -0.8340
13337   HW1  13.1100  28.7400  68.4100 H     1   SOL   0.4170
13338   HW2  12.7100  27.2900  68.5800 H     1   SOL   0.4170
13339    OW  41.1500  18.9200  67.2000 O     1   SOL  -0.8340
13340   HW1  41.8500  19.5000  66.9100 H     1   SOL   0.4170
13341   HW2  41.4100  18.6500  68.0800 H     1   SOL   0.4170
13342    OW  37.5900  39.1100  53.6000 O     1   SOL  -0.8340
13343   HW1  36.9400  39.7600  53.3600 H     1   SOL   0.4170
13344   HW2  37.1000  38.4500  54.0900 H     1   SOL   0.4170
13345    OW  35.9500  36.4100  67.1400 O     1   SOL  -0.8340
13346   HW1  36.0800  36.6300  68.0600 H     1   SOL   0.4170
13347   HW2  36.0700  35.4600  67.1000 H     1   SOL   0.4170
13348    OW  25.2900  16.2100  73.7000 O     1   SOL  -0.8340
13349   HW1  24.7900  16.6800  73.0300 H     1   SOL   0.4170
13350   HW2  26.1900  16.2200  73.3700 H     1   SOL   0.4170
13351    OW  32.1900   3.3500  53.4800 O     1   SOL  -0.8340
13352   HW1  33.0500   3.5400  53.8600 H     1   SOL   0.4170
13353   HW2  31.9700   2.4800  53.8200 H     1   SOL   0.4170
13354    OW  29.7500  40.0700  48.8000 O     1   SOL  -0.8340
13355   HW1  29.9400  39.2500  48.3600 H     1   SOL   0.4170
13356   HW2  29.8100  40.7300  48.1100 H     1   SOL   0.4170
13357    OW  27.7200  19.0000  77.0300 O     1   SOL  -0.8340
13358   HW1  28.3200  19.7500  76.9900 H     1   SOL   0.4170
13359   HW2  26.8600  19.3900  77.1600 H     1   SOL   0.4170
13360    OW  23.2200  28.7500  62.1100 O     1   SOL  -0.8340
13361   HW1  22.2700  28.8000  62.0400 H     1   SOL   0.4170
13362   HW2  23.5100  28.4300  61.2600 H     1   SOL   0.4170
13363    OW   2.9000  24.9200  66.5400 O     1   SOL  -0.8340
13364   HW1   3.8400  25.0200  66.6700 H     1   SOL   0.4170
13365   HW2   2.5100  25.6800  66.9800 H     1   SOL   0.4170
13366    OW  15.6500  39.0700  74.0600 O     1   SOL  -0.8340
13367   HW1  14.9600  39.6800  74.2900 H     1   SOL   0.4170
13368   HW2  16.1700  38.9700  74.8600 H     1   SOL   0.4170
13369    OW   2.3800  21.5800  71.1800 O     1   SOL  -0.8340
13370   HW1   2.1100  21.4200  70.2800 H     1   SOL   0.4170
13371   HW2   2.1600  20.7600  71.6400 H     1   SOL   0.4170
13372    OW   0.7900  30.4500  50.6400 O     1   SOL  -0.8340
13373   HW1   0.5500  29.5400  50.4800 H     1   SOL   0.4170
13374   HW2   0.9900  30.4900  51.5800 H     1   SOL   0.4170
13375    OW   3.2400  25.9700  69.5600 O     1   SOL  -0.8340
13376   HW1   2.9700  25.2700  70.1500 H     1   SOL   0.4170
13377   HW2   2.5200  26.6100  69.6000 H     1   SOL   0.4170
13378    OW  33.9600  21.8100  73.7700 O     1   SOL  -0.8340
13379   HW1  33.5700  21.4700  74.5800 H     1   SOL   0.4170
13380   HW2  33.4600  22.6000  73.5900 H     1   SOL   0.4170
13381    OW  39.0200  27.6800  67.8000 O     1   SOL  -0.8340
13382   HW1  39.4000  28.5200  67.5300 H     1   SOL   0.4170
13383   HW2  39.7600  27.2100  68.1900 H     1   SOL   0.4170
13384    OW  33.6300  22.3500  48.6100 O     1   SOL  -0.8340
13385   HW1  33.1700  21.6600  49.1000 H     1   SOL   0.4170
13386   HW2  34.0000  21.9000  47.8600 H     1   SOL   0.4170
13387    OW  41.1000  20.3600  53.3000 O     1   SOL  -0.8340
13388   HW1  41.8100  20.4200  53.9500 H     1   SOL   0.4170
13389   HW2  41.5500  20.1800  52.4800 H     1   SOL   0.4170
13390    OW  10.6700  21.7200  63.8900 O     1   SOL  -0.8340
13391   HW1  10.2000  22.3500  64.4400 H     1   SOL   0.4170
13392   HW2  10.9600  21.0400  64.5000 H     1   SOL   0.4170
13393    OW  26.2800  32.0100  72.7200 O     1   SOL  -0.8340
13394   HW1  26.9200  31.6800  72.1000 H     1   SOL   0.4170
13395   HW2  25.9200  32.8000  72.3100 H     1   SOL   0.4170
13396    OW  35.9300  28.9000  70.1000 O     1   SOL  -0.8340
13397   HW1  35.5200  28.2200  70.6200 H     1   SOL   0.4170
13398   HW2  35.4700  28.8700  69.2600 H     1   SOL   0.4170
13399    OW  42.2700  38.6600  64.6700 O     1   SOL  -0.8340
13400   HW1  41.9900  37.7500  64.5900 H     1   SOL   0.4170
13401   HW2  41.8200  38.9800  65.4500 H     1   SOL   0.4170
13402    OW   7.7700  33.6400  34.4900 O     1   SOL  -0.8340
13403   HW1   7.3000  32.9500  34.0300 H     1   SOL   0.4170
13404   HW2   7.0800  34.2400  34.7900 H     1   SOL   0.4170
13405    OW   9.4300   5.2900  72.6700 O     1   SOL  -0.8340
13406   HW1   8.7200   5.9000  72.8800 H     1   SOL   0.4170
13407   HW2  10.2300   5.8100  72.7800 H     1   SOL   0.4170
13408    OW  41.7500  20.6200  70.4100 O     1   SOL  -0.8340
13409   HW1  42.6500  20.7900  70.1500 H     1   SOL   0.4170
13410   HW2  41.7900  19.8100  70.9200 H     1   SOL   0.4170
13411    OW   0.9900   0.8400  69.2400 O     1   SOL  -0.8340
13412   HW1   0.4500   0.3200  69.8300 H     1   SOL   0.4170
13413   HW2   0.3700   1.4700  68.8500 H     1   SOL   0.4170
13414    OW  13.3100  27.8500  56.3700 O     1   SOL  -0.8340
13415   HW1  13.3500  28.3100  55.5300 H     1   SOL   0.4170
13416   HW2  13.9000  27.1000  56.2700 H     1   SOL   0.4170
13417    OW  32.3200  24.3900  68.6300 O     1   SOL  -0.8340
13418   HW1  33.0000  24.3800  67.9600 H     1   SOL   0.4170
13419   HW2  31.5100  24.1800  68.1600 H     1   SOL   0.4170
13420    OW   9.7200   5.3100  56.5000 O     1   SOL  -0.8340
13421   HW1   9.4800   4.5500  55.9700 H     1   SOL   0.4170
13422   HW2  10.6600   5.2000  56.6700 H     1   SOL   0.4170
13423    OW   1.0700  26.2100  63.5500 O     1   SOL  -0.8340
13424   HW1   0.1800  25.9100  63.7400 H     1   SOL   0.4170
13425   HW2   1.2600  26.8500  64.2400 H     1   SOL   0.4170
13426    OW  38.4100  34.5400  60.7400 O     1   SOL  -0.8340
13427   HW1  38.5800  35.4700  60.9300 H     1   SOL   0.4170
13428   HW2  38.7800  34.0700  61.4900 H     1   SOL   0.4170
13429    OW  34.0300  14.9700  72.4300 O     1   SOL  -0.8340
13430   HW1  34.9200  14.7200  72.2100 H     1   SOL   0.4170
13431   HW2  33.6900  15.3900  71.6400 H     1   SOL   0.4170
13432    OW  36.4200  39.1700  61.0700 O     1   SOL  -0.8340
13433   HW1  35.9600  39.0100  61.9000 H     1   SOL   0.4170
13434   HW2  36.0200  39.9600  60.7200 H     1   SOL   0.4170
13435    OW  32.6500  10.9300  59.0500 O     1   SOL  -0.8340
13436   HW1  31.9400  11.3300  58.5400 H     1   SOL   0.4170
13437   HW2  33.3200  10.7200  58.4000 H     1   SOL   0.4170
13438    OW  31.3300   8.9300  69.1300 O     1   SOL  -0.8340
13439   HW1  31.6300   8.7500  68.2400 H     1   SOL   0.4170
13440   HW2  30.7800   9.7100  69.0500 H     1   SOL   0.4170
13441    OW  33.5100  29.0800  53.6800 O     1   SOL  -0.8340
13442   HW1  32.9900  28.6100  53.0300 H     1   SOL   0.4170
13443   HW2  33.0700  28.8900  54.5100 H     1   SOL   0.4170
13444    OW  28.3600  10.0200  65.9300 O     1   SOL  -0.8340
13445   HW1  29.0000  10.6800  65.6700 H     1   SOL   0.4170
13446   HW2  28.4200   9.3500  65.2500 H     1   SOL   0.4170
13447    OW  32.2700  31.6100  74.7000 O     1   SOL  -0.8340
13448   HW1  32.6900  30.8400  74.3100 H     1   SOL   0.4170
13449   HW2  32.7400  31.7500  75.5200 H     1   SOL   0.4170
13450    OW   5.5800  27.4300  68.9200 O     1   SOL  -0.8340
13451   HW1   5.9100  26.7200  68.3800 H     1   SOL   0.4170
13452   HW2   4.7800  27.0800  69.3200 H     1   SOL   0.4170
13453    OW  12.1900   4.8500  74.3800 O     1   SOL  -0.8340
13454   HW1  11.3200   5.2400  74.3000 H     1   SOL   0.4170
13455   HW2  12.0300   3.9600  74.7100 H     1   SOL   0.4170
13456    OW  18.1300  17.9700  63.3900 O     1   SOL  -0.8340
13457   HW1  18.9700  17.6200  63.0800 H     1   SOL   0.4170
13458   HW2  17.8200  18.5100  62.6600 H     1   SOL   0.4170
13459    OW  41.6400  34.8800  58.2100 O     1   SOL  -0.8340
13460   HW1  41.4900  35.8200  58.1100 H     1   SOL   0.4170
13461   HW2  40.8200  34.5500  58.5900 H     1   SOL   0.4170
13462    OW  38.9800  34.8700  51.8300 O     1   SOL  -0.8340
13463   HW1  39.2000  35.1500  52.7200 H     1   SOL   0.4170
13464   HW2  39.7600  34.4100  51.5300 H     1   SOL   0.4170
13465    OW  34.6900  28.9800  76.4100 O     1   SOL  -0.8340
13466   HW1  35.0300  29.8600  76.5800 H     1   SOL   0.4170
13467   HW2  35.0500  28.4400  77.1100 H     1   SOL   0.4170
13468    OW  36.2100  37.7600  40.9500 O     1   SOL  -0.8340
13469   HW1  35.5700  37.0800  40.7800 H     1   SOL   0.4170
13470   HW2  37.0300  37.2900  41.1000 H     1   SOL   0.4170
13471    OW  37.5500   1.5900  73.6500 O     1   SOL  -0.8340
13472   HW1  37.1900   2.1200  72.9400 H     1   SOL   0.4170
13473   HW2  36.9800   1.7600  74.4000 H     1   SOL   0.4170
13474    OW   6.9200  33.9200  77.1900 O     1   SOL  -0.8340
13475   HW1   6.6500  34.8000  77.4400 H     1   SOL   0.4170
13476   HW2   7.8400  34.0000  76.9600 H     1   SOL   0.4170
13477    OW  19.4100  36.0500  73.5300 O     1   SOL  -0.8340
13478   HW1  19.0300  36.6600  74.1600 H     1   SOL   0.4170
13479   HW2  19.9000  36.6100  72.9200 H     1   SOL   0.4170
13480    OW  31.3200  34.4900  63.2300 O     1   SOL  -0.8340
13481   HW1  30.7900  35.0800  63.7700 H     1   SOL   0.4170
13482   HW2  30.7000  34.1000  62.6200 H     1   SOL   0.4170
13483    OW  39.5700  24.7800  57.1300 O     1   SOL  -0.8340
13484   HW1  39.8800  24.8100  56.2200 H     1   SOL   0.4170
13485   HW2  39.8500  23.9200  57.4500 H     1   SOL   0.4170
13486    OW  38.7900  22.1300  76.3800 O     1   SOL  -0.8340
13487   HW1  38.5700  21.3800  76.9400 H     1   SOL   0.4170
13488   HW2  39.7500  22.1700  76.4000 H     1   SOL   0.4170
13489    OW   6.8800  25.4700  72.1100 O     1   SOL  -0.8340
13490   HW1   6.5700  26.2600  71.6700 H     1   SOL   0.4170
13491   HW2   7.7800  25.3500  71.7900 H     1   SOL   0.4170
13492    OW  41.4500  21.5200  77.0200 O     1   SOL  -0.8340
13493   HW1  42.2000  22.1100  77.0200 H     1   SOL   0.4170
13494   HW2  41.8100  20.6800  76.7200 H     1   SOL   0.4170
13495    OW  40.6700  27.7800  76.5500 O     1   SOL  -0.8340
13496   HW1  40.9600  26.9800  76.9900 H     1   SOL   0.4170
13497   HW2  41.2300  28.4600  76.9200 H     1   SOL   0.4170
13498    OW  38.5800  19.1100  76.8900 O     1   SOL  -0.8340
13499   HW1  39.2500  19.4500  76.3000 H     1   SOL   0.4170
13500   HW2  38.8100  18.1800  77.0100 H     1   SOL   0.4170
13501    OW   7.2600  16.2500  77.0800 O     1   SOL  -0.8340
13502   HW1   7.9700  15.6500  77.3000 H     1   SOL   0.4170
13503   HW2   7.6800  17.1100  77.0200 H     1   SOL   0.4170
13504    OW  30.6200  36.1900  77.1300 O     1   SOL  -0.8340
13505   HW1  31.2500  36.5600  77.7500 H     1   SOL   0.4170
13506   HW2  31.1300  35.9700  76.3600 H     1   SOL   0.4170
13507    OW  41.1700  25.1200  77.0900 O     1   SOL  -0.8340
13508   HW1  41.8100  25.3200  76.4100 H     1   SOL   0.4170
13509   HW2  41.4300  24.2500  77.4000 H     1   SOL   0.4170
13510    OW  41.6600  19.0200  76.1900 O     1   SOL  -0.8340
13511   HW1  41.7400  18.3400  75.5300 H     1   SOL   0.4170
13512   HW2  41.3400  18.5700  76.9700 H     1   SOL   0.4170
13513    OW  36.4700  31.0100  76.5200 O     1   SOL  -0.8340
13514   HW1  37.1200  30.3100  76.5000 H     1   SOL   0.4170
13515   HW2  36.9900  31.8200  76.4300 H     1   SOL   0.4170
13516    OW  42.4100  36.6600  69.4300 O     1   SOL  -0.8340
13517   HW1  42.4000  37.2000  68.6400 H     1   SOL   0.4170
13518   HW2  43.1700  36.9700  69.9200 H     1   SOL   0.4170
13519    OW  39.9500  30.1600  67.3900 O     1   SOL  -0.8340
13520   HW1  40.2600  31.0700  67.4000 H     1   SOL   0.4170
13521   HW2  39.1400  30.1800  67.9000 H     1   SOL   0.4170
13522    OW  42.0000  39.6200   9.5000 O     1   SOL  -0.8340
13523   HW1  42.6800  38.9500   9.5900 H     1   SOL   0.4170
13524   HW2  42.4400  40.4300   9.7400 H     1   SOL   0.4170
13525    OW  38.4000  38.6800   7.0500 O     1   SOL  -0.8340
13526   HW1  39.3600  38.6300   6.9900 H     1   SOL   0.4170
13527   HW2  38.1200  37.7600   7.0900 H     1   SOL   0.4170
13528    OW  39.1300  42.2200   6.4600 O     1   SOL  -0.8340
13529   HW1  38.2300  41.9000   6.4300 H     1   SOL   0.4170
13530   HW2  39.5400  41.7300   7.1800 H     1   SOL   0.4170
13531    OW  31.2400   3.4900  16.1400 O     1   SOL  -0.8340
13532   HW1  31.9700   4.0700  16.3500 H     1   SOL   0.4170
13533   HW2  30.5700   3.7300  16.7800 H     1   SOL   0.4170
13534    OW   5.0600  40.1900   6.7900 O     1   SOL  -0.8340
13535   HW1   5.6200  40.1400   7.5700 H     1   SOL   0.4170
13536   HW2   5.5100  39.6700   6.1300 H     1   SOL   0.4170
13537    OW  38.1300   3.4400   9.7700 O     1   SOL  -0.8340
13538   HW1  37.3700   3.9800   9.9900 H     1   SOL   0.4170
13539   HW2  37.7800   2.5600   9.6900 H     1   SOL   0.4170
13540    OW   6.5300  14.1400  15.9400 O     1   SOL  -0.8340
13541   HW1   6.0600  14.1400  16.7700 H     1   SOL   0.4170
13542   HW2   5.8800  13.8500  15.2900 H     1   SOL   0.4170
13543    OW  28.7400  37.8700  20.8900 O     1   SOL  -0.8340
13544   HW1  28.8700  38.8000  21.1100 H     1   SOL   0.4170
13545   HW2  28.0800  37.5600  21.5100 H     1   SOL   0.4170
13546    OW  33.2500   1.7700  15.2500 O     1   SOL  -0.8340
13547   HW1  32.9400   2.4200  15.8700 H     1   SOL   0.4170
13548   HW2  32.7300   0.9900  15.4400 H     1   SOL   0.4170
13549    OW   6.2500   0.2000  17.4000 O     1   SOL  -0.8340
13550   HW1   6.6100   0.1500  18.2800 H     1   SOL   0.4170
13551   HW2   5.4600   0.7400  17.5000 H     1   SOL   0.4170
13552    OW  10.2900   3.5100  20.0000 O     1   SOL  -0.8340
13553   HW1  11.2400   3.4000  20.0500 H     1   SOL   0.4170
13554   HW2   9.9300   2.8100  20.5400 H     1   SOL   0.4170
13555    OW  28.9700  37.9600  16.9700 O     1   SOL  -0.8340
13556   HW1  29.1900  37.4900  17.7700 H     1   SOL   0.4170
13557   HW2  29.6900  37.7700  16.3600 H     1   SOL   0.4170
13558    OW  12.7700   3.2800  15.3200 O     1   SOL  -0.8340
13559   HW1  12.4800   2.4900  15.7800 H     1   SOL   0.4170
13560   HW2  12.7900   3.0100  14.4000 H     1   SOL   0.4170
13561    OW   0.1000   2.0000   6.3600 O     1   SOL  -0.8340
13562   HW1   0.2800   2.9300   6.4100 H     1   SOL   0.4170
13563   HW2  -0.8600   1.9400   6.4000 H     1   SOL   0.4170
13564    OW   4.1300  39.3400  17.2800 O     1   SOL  -0.8340
13565   HW1   4.4000  39.3500  16.3600 H     1   SOL   0.4170
13566   HW2   4.7600  39.9100  17.7200 H     1   SOL   0.4170
13567    OW  37.6200  32.4500  25.0900 O     1   SOL  -0.8340
13568   HW1  37.1200  32.8700  25.7900 H     1   SOL   0.4170
13569   HW2  38.5100  32.3800  25.4400 H     1   SOL   0.4170
13570    OW  39.9800  35.3500  27.7000 O     1   SOL  -0.8340
13571   HW1  40.6700  35.9900  27.8700 H     1   SOL   0.4170
13572   HW2  39.2100  35.7100  28.1400 H     1   SOL   0.4170
13573    OW  40.3000   4.3100   6.8900 O     1   SOL  -0.8340
13574   HW1  40.2500   3.3600   6.9600 H     1   SOL   0.4170
13575   HW2  40.2500   4.6300   7.7900 H     1   SOL   0.4170
13576    OW   9.6700  34.3300  39.5600 O     1   SOL  -0.8340
13577   HW1  10.1000  35.1900  39.5900 H     1   SOL   0.4170
13578   HW2   9.4900  34.1900  38.6300 H     1   SOL   0.4170
13579    OW  19.5700  34.8900  14.7800 O     1   SOL  -0.8340
13580   HW1  19.0800  34.4400  14.1000 H     1   SOL   0.4170
13581   HW2  18.9700  34.9200  15.5300 H     1   SOL   0.4170
13582    OW  11.0700  11.9000  25.5700 O     1   SOL  -0.8340
13583   HW1  11.5900  12.6800  25.7700 H     1   SOL   0.4170
13584   HW2  11.3500  11.2500  26.2100 H     1   SOL   0.4170
13585    OW  32.8200  38.6000  24.6200 O     1   SOL  -0.8340
13586   HW1  32.7300  39.0900  23.8000 H     1   SOL   0.4170
13587   HW2  32.6700  39.2500  25.3000 H     1   SOL   0.4170
13588    OW  31.7600  37.0400  29.6800 O     1   SOL  -0.8340
13589   HW1  32.2400  36.6000  30.3900 H     1   SOL   0.4170
13590   HW2  32.4300  37.2800  29.0500 H     1   SOL   0.4170
13591    OW  36.6300  41.4900  43.1600 O     1   SOL  -0.8340
13592   HW1  37.3100  42.0400  43.5600 H     1   SOL   0.4170
13593   HW2  36.2800  42.0300  42.4500 H     1   SOL   0.4170
13594    OW  40.2000   6.1600  39.4300 O     1   SOL  -0.8340
13595   HW1  40.1600   5.2300  39.6400 H     1   SOL   0.4170
13596   HW2  41.0500   6.2700  39.0000 H     1   SOL   0.4170
13597    OW  41.6100  25.5900  64.8800 O     1   SOL  -0.8340
13598   HW1  40.7400  25.2700  64.6100 H     1   SOL   0.4170
13599   HW2  42.0200  24.8400  65.3100 H     1   SOL   0.4170
13600    OW   3.2400   1.0800  35.3500 O     1   SOL  -0.8340
13601   HW1   3.0700   0.6100  34.5300 H     1   SOL   0.4170
13602   HW2   2.5000   1.6800  35.4500 H     1   SOL   0.4170
13603    OW  35.0100   0.7600  23.4700 O     1   SOL  -0.8340
13604   HW1  34.2000   0.2800  23.3300 H     1   SOL   0.4170
13605   HW2  35.6900   0.2000  23.1100 H     1   SOL   0.4170
13606    OW   6.6700  39.6400   9.2900 O     1   SOL  -0.8340
13607   HW1   7.4100  39.0200   9.3500 H     1   SOL   0.4170
13608   HW2   6.9600  40.4000   9.7900 H     1   SOL   0.4170
13609    OW  33.3200   2.3700  19.4100 O     1   SOL  -0.8340
13610   HW1  33.1300   1.6900  18.7600 H     1   SOL   0.4170
13611   HW2  34.2200   2.2100  19.6800 H     1   SOL   0.4170
13612    OW  42.7100  25.7300  39.2000 O     1   SOL  -0.8340
13613   HW1  42.5300  26.6300  38.9400 H     1   SOL   0.4170
13614   HW2  42.5500  25.7200  40.1400 H     1   SOL   0.4170
13615    OW   1.7400   8.8000  59.5100 O     1   SOL  -0.8340
13616   HW1   1.1300   9.1800  60.1400 H     1   SOL   0.4170
13617   HW2   2.0700   9.5600  59.0100 H     1   SOL   0.4170
13618    OW  30.4600   6.2700  47.5500 O     1   SOL  -0.8340
13619   HW1  29.6500   6.2500  48.0600 H     1   SOL   0.4170
13620   HW2  30.4700   5.4300  47.1000 H     1   SOL   0.4170
13621    OW  13.5600   6.6100  50.8400 O     1   SOL  -0.8340
13622   HW1  13.8900   7.4800  51.0500 H     1   SOL   0.4170
13623   HW2  12.9600   6.4000  51.5600 H     1   SOL   0.4170
13624    OW   0.7400  33.5200  57.4900 O     1   SOL  -0.8340
13625   HW1   0.8100  33.2100  56.5800 H     1   SOL   0.4170
13626   HW2  -0.1900  33.7000  57.6100 H     1   SOL   0.4170
13627    OW  32.9800  38.6200  51.2400 O     1   SOL  -0.8340
13628   HW1  32.8800  39.5500  51.0300 H     1   SOL   0.4170
13629   HW2  33.5200  38.2700  50.5400 H     1   SOL   0.4170
13630    OW  41.4900  15.0700  46.1000 O     1   SOL  -0.8340
13631   HW1  40.6100  15.0000  45.7200 H     1   SOL   0.4170
13632   HW2  42.0400  15.3500  45.3800 H     1   SOL   0.4170
13633    OW  24.2200   1.3200  47.4200 O     1   SOL  -0.8340
13634   HW1  23.6000   1.9200  47.8500 H     1   SOL   0.4170
13635   HW2  24.8900   1.1600  48.0800 H     1   SOL   0.4170
13636    OW  11.1400  23.2900  39.3100 O     1   SOL  -0.8340
13637   HW1  10.8900  22.3800  39.1700 H     1   SOL   0.4170
13638   HW2  11.9300  23.4000  38.7900 H     1   SOL   0.4170
13639    OW  27.0900  26.0000  32.9200 O     1   SOL  -0.8340
13640   HW1  26.6500  26.6800  32.4100 H     1   SOL   0.4170
13641   HW2  28.0200  26.1100  32.7200 H     1   SOL   0.4170
13642    OW  33.5600   2.3700  39.9400 O     1   SOL  -0.8340
13643   HW1  34.4400   2.1000  39.6700 H     1   SOL   0.4170
13644   HW2  33.5800   3.3300  39.8700 H     1   SOL   0.4170
13645    OW  40.0400  28.1800  26.6200 O     1   SOL  -0.8340
13646   HW1  39.5000  28.6200  25.9700 H     1   SOL   0.4170
13647   HW2  40.0900  27.2700  26.3100 H     1   SOL   0.4170
13648    OW   2.8900   1.2500  48.1600 O     1   SOL  -0.8340
13649   HW1   2.4300   1.8600  48.7200 H     1   SOL   0.4170
13650   HW2   3.8200   1.4700  48.2700 H     1   SOL   0.4170
13651    OW  31.6800  35.5700  49.5000 O     1   SOL  -0.8340
13652   HW1  31.5800  34.6200  49.4400 H     1   SOL   0.4170
13653   HW2  31.5000  35.8900  48.6100 H     1   SOL   0.4170
13654    OW  31.6900   7.4400  60.9300 O     1   SOL  -0.8340
13655   HW1  31.2000   6.6300  61.0600 H     1   SOL   0.4170
13656   HW2  32.5400   7.2800  61.3300 H     1   SOL   0.4170
13657    OW  41.2800  35.8700  43.8700 O     1   SOL  -0.8340
13658   HW1  41.8000  36.2300  43.1500 H     1   SOL   0.4170
13659   HW2  40.9300  35.0500  43.5200 H     1   SOL   0.4170
13660    OW   8.5500  31.9100  54.2700 O     1   SOL  -0.8340
13661   HW1   7.8000  31.5700  53.7700 H     1   SOL   0.4170
13662   HW2   8.9900  32.5000  53.6700 H     1   SOL   0.4170
13663    OW   4.8900  18.7000  42.2700 O     1   SOL  -0.8340
13664   HW1   4.1500  19.2500  42.0200 H     1   SOL   0.4170
13665   HW2   5.4400  19.2800  42.8000 H     1   SOL   0.4170
13666    OW  12.8800  34.3000  24.9100 O     1   SOL  -0.8340
13667   HW1  12.9100  35.2100  25.2200 H     1   SOL   0.4170
13668   HW2  13.2700  34.3400  24.0400 H     1   SOL   0.4170
13669    OW  35.1000   2.0000  51.4900 O     1   SOL  -0.8340
13670   HW1  35.4500   1.6200  52.2900 H     1   SOL   0.4170
13671   HW2  34.9500   2.9200  51.7000 H     1   SOL   0.4170
13672    OW   8.4600  40.4200  58.5900 O     1   SOL  -0.8340
13673   HW1   9.3100  40.6000  58.1800 H     1   SOL   0.4170
13674   HW2   8.2500  41.2200  59.0700 H     1   SOL   0.4170
13675    OW  35.8200  36.1900  60.2400 O     1   SOL  -0.8340
13676   HW1  36.6300  35.9500  60.7000 H     1   SOL   0.4170
13677   HW2  35.5900  37.0500  60.5900 H     1   SOL   0.4170
13678    OW  26.6100  13.0700  64.3500 O     1   SOL  -0.8340
13679   HW1  25.8900  12.7600  64.9000 H     1   SOL   0.4170
13680   HW2  26.3900  13.9700  64.1500 H     1   SOL   0.4170
13681    OW   9.6500  17.5000  58.2600 O     1   SOL  -0.8340
13682   HW1   9.7000  18.2400  58.8500 H     1   SOL   0.4170
13683   HW2  10.2300  17.7200  57.5300 H     1   SOL   0.4170
13684    OW  11.9500  38.6100  68.5600 O     1   SOL  -0.8340
13685   HW1  12.2800  39.4900  68.4200 H     1   SOL   0.4170
13686   HW2  11.2300  38.5100  67.9300 H     1   SOL   0.4170
13687    OW  38.3000  12.9400  74.5100 O     1   SOL  -0.8340
13688   HW1  38.0300  12.0200  74.5200 H     1   SOL   0.4170
13689   HW2  37.5400  13.4200  74.8300 H     1   SOL   0.4170
13690    OW  36.8000  42.1300  73.3600 O     1   SOL  -0.8340
13691   HW1  35.9500  41.9900  72.9400 H     1   SOL   0.4170
13692   HW2  36.9000  43.0800  73.3900 H     1   SOL   0.4170
13693    OW   1.6300  37.4500  70.7900 O     1   SOL  -0.8340
13694   HW1   1.8200  38.3300  71.1200 H     1   SOL   0.4170
13695   HW2   2.4200  36.9500  70.9900 H     1   SOL   0.4170
13696    OW  38.5900  42.7900  52.4300 O     1   SOL  -0.8340
13697   HW1  39.0000  43.3300  53.1000 H     1   SOL   0.4170
13698   HW2  38.6400  41.9000  52.7700 H     1   SOL   0.4170
13699    OW  39.9100   1.6700  77.1300 O     1   SOL  -0.8340
13700   HW1  39.1800   1.1000  76.8900 H     1   SOL   0.4170
13701   HW2  39.5100   2.5400  77.2300 H     1   SOL   0.4170
13702    OW  21.6800  40.6500  69.8900 O     1   SOL  -0.8340
13703   HW1  21.5800  39.6900  69.8900 H     1   SOL   0.4170
13704   HW2  22.6200  40.7900  69.8100 H     1   SOL   0.4170
13705    OW   5.1200  25.3700  74.3500 O     1   SOL  -0.8340
13706   HW1   5.6400  26.1100  74.6500 H     1   SOL   0.4170
13707   HW2   5.5200  25.1100  73.5200 H     1   SOL   0.4170
13708    OW  41.6800  39.9100  74.4900 O     1   SOL  -0.8340
13709   HW1  41.8900  40.7300  74.9500 H     1   SOL   0.4170
13710   HW2  40.7600  39.7600  74.7000 H     1   SOL   0.4170
13711    OW  39.5600   2.9800  70.3700 O     1   SOL  -0.8340
13712   HW1  39.4600   3.4700  69.5500 H     1   SOL   0.4170
13713   HW2  39.4000   2.0700  70.1300 H     1   SOL   0.4170
13714    OW  38.9500  37.3400  71.6700 O     1   SOL  -0.8340
13715   HW1  38.5100  37.2700  72.5100 H     1   SOL   0.4170
13716   HW2  39.6400  36.6700  71.6900 H     1   SOL   0.4170
13717    OW  28.1300  34.5500  77.0300 O     1   SOL  -0.8340
13718   HW1  28.8700  35.1700  77.0200 H     1   SOL   0.4170
13719   HW2  28.0900  34.2100  76.1400 H     1   SOL   0.4170
13720    OW   0.7600  27.4600  69.4800 O     1   SOL  -0.8340
13721   HW1   0.6800  28.4200  69.4500 H     1   SOL   0.4170
13722   HW2   0.3400  27.1600  68.6800 H     1   SOL   0.4170
13723    OW  17.0800   7.8200  67.6200 O     1   SOL  -0.8340
13724   HW1  16.7400   8.0300  68.4900 H     1   SOL   0.4170
13725   HW2  17.9100   8.2900  67.5700 H     1   SOL   0.4170
13726    OW   7.3400  28.7700  59.4700 O     1   SOL  -0.8340
13727   HW1   8.1000  29.3500  59.3400 H     1   SOL   0.4170
13728   HW2   6.6300  29.2100  59.0100 H     1   SOL   0.4170
13729    OW  12.8100   9.0600  65.2200 O     1   SOL  -0.8340
13730   HW1  12.5000   8.5000  64.5100 H     1   SOL   0.4170
13731   HW2  12.2500   9.8400  65.1700 H     1   SOL   0.4170
13732    OW  27.1200  32.1800  44.1700 O     1   SOL  -0.8340
13733   HW1  26.8300  31.2800  44.3000 H     1   SOL   0.4170
13734   HW2  27.8900  32.2800  44.7400 H     1   SOL   0.4170
13735    OW  37.1300  36.5200  69.7400 O     1   SOL  -0.8340
13736   HW1  37.1900  35.6500  70.1300 H     1   SOL   0.4170
13737   HW2  37.7700  37.0500  70.2100 H     1   SOL   0.4170
13738    OW   2.9400  38.5800  76.8700 O     1   SOL  -0.8340
13739   HW1   2.4400  39.3500  77.1400 H     1   SOL   0.4170
13740   HW2   3.8100  38.9200  76.6600 H     1   SOL   0.4170
13741    OW  32.6800  37.0800  63.3500 O     1   SOL  -0.8340
13742   HW1  32.9900  37.2300  64.2500 H     1   SOL   0.4170
13743   HW2  32.6800  36.1300  63.2500 H     1   SOL   0.4170
13744    OW  10.7300  41.9600  76.7800 O     1   SOL  -0.8340
13745   HW1  10.3300  41.2100  77.2100 H     1   SOL   0.4170
13746   HW2  11.6700  41.8200  76.8600 H     1   SOL   0.4170
13747    OW  35.0400   0.1900  76.6300 O     1   SOL  -0.8340
13748   HW1  34.2100   0.2800  76.1600 H     1   SOL   0.4170
13749   HW2  35.2900   1.0900  76.8500 H     1   SOL   0.4170
@<TRIPOS>BOND
    1  1729  1730     1
    2  1730  1731     1
    3  1731  1732     1
    4  1732  1733     1
    5  1733  1734     1
    6  1734  1735     1
    7  1729  1736     1
    8  1729  1737     1
    9  1729  1738     1
   10  1730  1739     1
   11  1730  1740     1
   12  1731  1741     1
   13  1731  1742     1
   14  1732  1743     1
   15  1732  1744     1
   16  1733  1745     1
   17  1733  1746     1
   18  1734  1747     1
   19  1734  1748     1
   20  1735  1749     1
   21  1750  1751     1
   22  1751  1752     1
   23  1752  1753     1
   24  1753  1754     1
   25  1754  1755     1
   26  1755  1756     1
   27  1750  1757     1
   28  1750  1758     1
   29  1750  1759     1
   30  1751  1760     1
   31  1751  1761     1
   32  1752  1762     1
   33  1752  1763     1
   34  1753  1764     1
   35  1753  1765     1
   36  1754  1766     1
   37  1754  1767     1
   38  1755  1768     1
   39  1755  1769     1
   40  1756  1770     1
   41  1771  1772     1
   42  1772  1773     1
   43  1773  1774     1
   44  1774  1775     1
   45  1775  1776     1
   46  1776  1777     1
   47  1771  1778     1
   48  1771  1779     1
   49  1771  1780     1
   50  1772  1781     1
   51  1772  1782     1
   52  1773  1783     1
   53  1773  1784     1
   54  1774  1785     1
   55  1774  1786     1
   56  1775  1787     1
   57  1775  1788     1
   58  1776  1789     1
   59  1776  1790     1
   60  1777  1791     1
   61  1792  1793     1
   62  1793  1794     1
   63  1794  1795     1
   64  1795  1796     1
   65  1796  1797     1
   66  1797  1798     1
   67  1792  1799     1
   68  1792  1800     1
   69  1792  1801     1
   70  1793  1802     1
   71  1793  1803     1
   72  1794  1804     1
   73  1794  1805     1
   74  1795  1806     1
   75  1795  1807     1
   76  1796  1808     1
   77  1796  1809     1
   78  1797  1810     1
   79  1797  1811     1
   80  1798  1812     1
   81  1813  1814     1
   82  1814  1815     1
   83  1815  1816     1
   84  1816  1817     1
   85  1817  1818     1
   86  1818  1819     1
   87  1813  1820     1
   88  1813  1821     1
   89  1813  1822     1
   90  1814  1823     1
   91  1814  1824     1
   92  1815  1825     1
   93  1815  1826     1
   94  1816  1827     1
   95  1816  1828     1
   96  1817  1829     1
   97  1817  1830     1
   98  1818  1831     1
   99  1818  1832     1
  100  1819  1833     1
  101  1834  1835     1
  102  1835  1836     1
  103  1836  1837     1
  104  1837  1838     1
  105  1838  1839     1
  106  1839  1840     1
  107  1834  1841     1
  108  1834  1842     1
  109  1834  1843     1
  110  1835  1844     1
  111  1835  1845     1
  112  1836  1846     1
  113  1836  1847     1
  114  1837  1848     1
  115  1837  1849     1
  116  1838  1850     1
  117  1838  1851     1
  118  1839  1852     1
  119  1839  1853     1
  120  1840  1854     1
  121  1855  1856     1
  122  1856  1857     1
  123  1857  1858     1
  124  1858  1859     1
  125  1859  1860     1
  126  1860  1861     1
  127  1855  1862     1
  128  1855  1863     1
  129  1855  1864     1
  130  1856  1865     1
  131  1856  1866     1
  132  1857  1867     1
  133  1857  1868     1
  134  1858  1869     1
  135  1858  1870     1
  136  1859  1871     1
  137  1859  1872     1
  138  1860  1873     1
  139  1860  1874     1
  140  1861  1875     1
  141  1876  1877     1
  142  1877  1878     1
  143  1878  1879     1
  144  1879  1880     1
  145  1880  1881     1
  146  1881  1882     1
  147  1876  1883     1
  148  1876  1884     1
  149  1876  1885     1
  150  1877  1886     1
  151  1877  1887     1
  152  1878  1888     1
  153  1878  1889     1
  154  1879  1890     1
  155  1879  1891     1
  156  1880  1892     1
  157  1880  1893     1
  158  1881  1894     1
  159  1881  1895     1
  160  1882  1896     1
  161  1897  1898     1
  162  1898  1899     1
  163  1899  1900     1
  164  1900  1901     1
  165  1901  1902     1
  166  1902  1903     1
  167  1897  1904     1
  168  1897  1905     1
  169  1897  1906     1
  170  1898  1907     1
  171  1898  1908     1
  172  1899  1909     1
  173  1899  1910     1
  174  1900  1911     1
  175  1900  1912     1
  176  1901  1913     1
  177  1901  1914     1
  178  1902  1915     1
  179  1902  1916     1
  180  1903  1917     1
  181  1918  1919     1
  182  1919  1920     1
  183  1920  1921     1
  184  1921  1922     1
  185  1922  1923     1
  186  1923  1924     1
  187  1918  1925     1
  188  1918  1926     1
  189  1918  1927     1
  190  1919  1928     1
  191  1919  1929     1
  192  1920  1930     1
  193  1920  1931     1
  194  1921  1932     1
  195  1921  1933     1
  196  1922  1934     1
  197  1922  1935     1
  198  1923  1936     1
  199  1923  1937     1
  200  1924  1938     1
  201  1939  1940     1
  202  1939  1941     1
  203  1942  1943     1
  204  1942  1944     1
  205  1945  1946     1
  206  1945  1947     1
  207  1948  1949     1
  208  1948  1950     1
  209  1951  1952     1
  210  1951  1953     1
  211  1954  1955     1
  212  1954  1956     1
  213  1957  1958     1
  214  1957  1959     1
  215  1960  1961     1
  216  1960  1962     1
  217  1963  1964     1
  218  1963  1965     1
  219  1966  1967     1
  220  1966  1968     1
  221  1969  1970     1
  222  1969  1971     1
  223  1972  1973     1
  224  1972  1974     1
  225  1975  1976     1
  226  1975  1977     1
  227  1978  1979     1
  228  1978  1980     1
  229  1981  1982     1
  230  1981  1983     1
  231  1984  1985     1
  232  1984  1986     1
  233  1987  1988     1
  234  1987  1989     1
  235  1990  1991     1
  236  1990  1992     1
  237  1993  1994     1
  238  1993  1995     1
  239  1996  1997     1
  240  1996  1998     1
  241  1999  2000     1
  242  1999  2001     1
  243  2002  2003     1
  244  2002  2004     1
  245  2005  2006     1
  246  2005  2007     1
  247  2008  2009     1
  248  2008  2010     1
  249  2011  2012     1
  250  2011  2013     1
  251  2014  2015     1
  252  2014  2016     1
  253  2017  2018     1
  254  2017  2019     1
  255  2020  2021     1
  256  2020  2022     1
  257  2023  2024     1
  258  2023  2025     1
  259  2026  2027     1
  260  2026  2028     1
  261  2029  2030     1
  262  2029  2031     1
  263  2032  2033     1
  264  2032  2034     1
  265  2035  2036     1
  266  2035  2037     1
  267  2038  2039     1
  268  2038  2040     1
  269  2041  2042     1
  270  2041  2043     1
  271  2044  2045     1
  272  2044  2046     1
  273  2047  2048     1
  274  2047  2049     1
  275  2050  2051     1
  276  2050  2052     1
  277  2053  2054     1
  278  2053  2055     1
  279  2056  2057     1
  280  2056  2058     1
  281  2059  2060     1
  282  2059  2061     1
  283  2062  2063     1
  284  2062  2064     1
  285  2065  2066     1
  286  2065  2067     1
  287  2068  2069     1
  288  2068  2070     1
  289  2071  2072     1
  290  2071  2073     1
  291  2074  2075     1
  292  2074  2076     1
  293  2077  2078     1
  294  2077  2079     1
  295  2080  2081     1
  296  2080  2082     1
  297  2083  2084     1
  298  2083  2085     1
  299  2086  2087     1
  300  2086  2088     1
  301  2089  2090     1
  302  2089  2091     1
  303  2092  2093     1
  304  2092  2094     1
  305  2095  2096     1
  306  2095  2097     1
  307  2098  2099     1
  308  2098  2100     1
  309  2101  2102     1
  310  2101  2103     1
  311  2104  2105     1
  312  2104  2106     1
  313  2107  2108     1
  314  2107  2109     1
  315  2110  2111     1
  316  2110  2112     1
  317  2113  2114     1
  318  2113  2115     1
  319  2116  2117     1
  320  2116  2118     1
  321  2119  2120     1
  322  2119  2121     1
  323  2122  2123     1
  324  2122  2124     1
  325  2125  2126     1
  326  2125  2127     1
  327  2128  2129     1
  328  2128  2130     1
  329  2131  2132     1
  330  2131  2133     1
  331  2134  2135     1
  332  2134  2136     1
  333  2137  2138     1
  334  2137  2139     1
  335  2140  2141     1
  336  2140  2142     1
  337  2143  2144     1
  338  2143  2145     1
  339  2146  2147     1
  340  2146  2148     1
  341  2149  2150     1
  342  2149  2151     1
  343  2152  2153     1
  344  2152  2154     1
  345  2155  2156     1
  346  2155  2157     1
  347  2158  2159     1
  348  2158  2160     1
  349  2161  2162     1
  350  2161  2163     1
  351  2164  2165     1
  352  2164  2166     1
  353  2167  2168     1
  354  2167  2169     1
  355  2170  2171     1
  356  2170  2172     1
  357  2173  2174     1
  358  2173  2175     1
  359  2176  2177     1
  360  2176  2178     1
  361  2179  2180     1
  362  2179  2181     1
  363  2182  2183     1
  364  2182  2184     1
  365  2185  2186     1
  366  2185  2187     1
  367  2188  2189     1
  368  2188  2190     1
  369  2191  2192     1
  370  2191  2193     1
  371  2194  2195     1
  372  2194  2196     1
  373  2197  2198     1
  374  2197  2199     1
  375  2200  2201     1
  376  2200  2202     1
  377  2203  2204     1
  378  2203  2205     1
  379  2206  2207     1
  380  2206  2208     1
  381  2209  2210     1
  382  2209  2211     1
  383  2212  2213     1
  384  2212  2214     1
  385  2215  2216     1
  386  2215  2217     1
  387  2218  2219     1
  388  2218  2220     1
  389  2221  2222     1
  390  2221  2223     1
  391  2224  2225     1
  392  2224  2226     1
  393  2227  2228     1
  394  2227  2229     1
  395  2230  2231     1
  396  2230  2232     1
  397  2233  2234     1
  398  2233  2235     1
  399  2236  2237     1
  400  2236  2238     1
  401  2239  2240     1
  402  2239  2241     1
  403  2242  2243     1
  404  2242  2244     1
  405  2245  2246     1
  406  2245  2247     1
  407  2248  2249     1
  408  2248  2250     1
  409  2251  2252     1
  410  2251  2253     1
  411  2254  2255     1
  412  2254  2256     1
  413  2257  2258     1
  414  2257  2259     1
  415  2260  2261     1
  416  2260  2262     1
  417  2263  2264     1
  418  2263  2265     1
  419  2266  2267     1
  420  2266  2268     1
  421  2269  2270     1
  422  2269  2271     1
  423  2272  2273     1
  424  2272  2274     1
  425  2275  2276     1
  426  2275  2277     1
  427  2278  2279     1
  428  2278  2280     1
  429  2281  2282     1
  430  2281  2283     1
  431  2284  2285     1
  432  2284  2286     1
  433  2287  2288     1
  434  2287  2289     1
  435  2290  2291     1
  436  2290  2292     1
  437  2293  2294     1
  438  2293  2295     1
  439  2296  2297     1
  440  2296  2298     1
  441  2299  2300     1
  442  2299  2301     1
  443  2302  2303     1
  444  2302  2304     1
  445  2305  2306     1
  446  2305  2307     1
  447  2308  2309     1
  448  2308  2310     1
  449  2311  2312     1
  450  2311  2313     1
  451  2314  2315     1
  452  2314  2316     1
  453  2317  2318     1
  454  2317  2319     1
  455  2320  2321     1
  456  2320  2322     1
  457  2323  2324     1
  458  2323  2325     1
  459  2326  2327     1
  460  2326  2328     1
  461  2329  2330     1
  462  2329  2331     1
  463  2332  2333     1
  464  2332  2334     1
  465  2335  2336     1
  466  2335  2337     1
  467  2338  2339     1
  468  2338  2340     1
  469  2341  2342     1
  470  2341  2343     1
  471  2344  2345     1
  472  2344  2346     1
  473  2347  2348     1
  474  2347  2349     1
  475  2350  2351     1
  476  2350  2352     1
  477  2353  2354     1
  478  2353  2355     1
  479  2356  2357     1
  480  2356  2358     1
  481  2359  2360     1
  482  2359  2361     1
  483  2362  2363     1
  484  2362  2364     1
  485  2365  2366     1
  486  2365  2367     1
  487  2368  2369     1
  488  2368  2370     1
  489  2371  2372     1
  490  2371  2373     1
  491  2374  2375     1
  492  2374  2376     1
  493  2377  2378     1
  494  2377  2379     1
  495  2380  2381     1
  496  2380  2382     1
  497  2383  2384     1
  498  2383  2385     1
  499  2386  2387     1
  500  2386  2388     1
  501  2389  2390     1
  502  2389  2391     1
  503  2392  2393     1
  504  2392  2394     1
  505  2395  2396     1
  506  2395  2397     1
  507  2398  2399     1
  508  2398  2400     1
  509  2401  2402     1
  510  2401  2403     1
  511  2404  2405     1
  512  2404  2406     1
  513  2407  2408     1
  514  2407  2409     1
  515  2410  2411     1
  516  2410  2412     1
  517  2413  2414     1
  518  2413  2415     1
  519  2416  2417     1
  520  2416  2418     1
  521  2419  2420     1
  522  2419  2421     1
  523  2422  2423     1
  524  2422  2424     1
  525  2425  2426     1
  526  2425  2427     1
  527  2428  2429     1
  528  2428  2430     1
  529  2431  2432     1
  530  2431  2433     1
  531  2434  2435     1
  532  2434  2436     1
  533  2437  2438     1
  534  2437  2439     1
  535  2440  2441     1
  536  2440  2442     1
  537  2443  2444     1
  538  2443  2445     1
  539  2446  2447     1
  540  2446  2448     1
  541  2449  2450     1
  542  2449  2451     1
  543  2452  2453     1
  544  2452  2454     1
  545  2455  2456     1
  546  2455  2457     1
  547  2458  2459     1
  548  2458  2460     1
  549  2461  2462     1
  550  2461  2463     1
  551  2464  2465     1
  552  2464  2466     1
  553  2467  2468     1
  554  2467  2469     1
  555  2470  2471     1
  556  2470  2472     1
  557  2473  2474     1
  558  2473  2475     1
  559  2476  2477     1
  560  2476  2478     1
  561  2479  2480     1
  562  2479  2481     1
  563  2482  2483     1
  564  2482  2484     1
  565  2485  2486     1
  566  2485  2487     1
  567  2488  2489     1
  568  2488  2490     1
  569  2491  2492     1
  570  2491  2493     1
  571  2494  2495     1
  572  2494  2496     1
  573  2497  2498     1
  574  2497  2499     1
  575  2500  2501     1
  576  2500  2502     1
  577  2503  2504     1
  578  2503  2505     1
  579  2506  2507     1
  580  2506  2508     1
  581  2509  2510     1
  582  2509  2511     1
  583  2512  2513     1
  584  2512  2514     1
  585  2515  2516     1
  586  2515  2517     1
  587  2518  2519     1
  588  2518  2520     1
  589  2521  2522     1
  590  2521  2523     1
  591  2524  2525     1
  592  2524  2526     1
  593  2527  2528     1
  594  2527  2529     1
  595  2530  2531     1
  596  2530  2532     1
  597  2533  2534     1
  598  2533  2535     1
  599  2536  2537     1
  600  2536  2538     1
  601  2539  2540     1
  602  2539  2541     1
  603  2542  2543     1
  604  2542  2544     1
  605  2545  2546     1
  606  2545  2547     1
  607  2548  2549     1
  608  2548  2550     1
  609  2551  2552     1
  610  2551  2553     1
  611  2554  2555     1
  612  2554  2556     1
  613  2557  2558     1
  614  2557  2559     1
  615  2560  2561     1
  616  2560  2562     1
  617  2563  2564     1
  618  2563  2565     1
  619  2566  2567     1
  620  2566  2568     1
  621  2569  2570     1
  622  2569  2571     1
  623  2572  2573     1
  624  2572  2574     1
  625  2575  2576     1
  626  2575  2577     1
  627  2578  2579     1
  628  2578  2580     1
  629  2581  2582     1
  630  2581  2583     1
  631  2584  2585     1
  632  2584  2586     1
  633  2587  2588     1
  634  2587  2589     1
  635  2590  2591     1
  636  2590  2592     1
  637  2593  2594     1
  638  2593  2595     1
  639  2596  2597     1
  640  2596  2598     1
  641  2599  2600     1
  642  2599  2601     1
  643  2602  2603     1
  644  2602  2604     1
  645  2605  2606     1
  646  2605  2607     1
  647  2608  2609     1
  648  2608  2610     1
  649  2611  2612     1
  650  2611  2613     1
  651  2614  2615     1
  652  2614  2616     1
  653  2617  2618     1
  654  2617  2619     1
  655  2620  2621     1
  656  2620  2622     1
  657  2623  2624     1
  658  2623  2625     1
  659  2626  2627     1
  660  2626  2628     1
  661  2629  2630     1
  662  2629  2631     1
  663  2632  2633     1
  664  2632  2634     1
  665  2635  2636     1
  666  2635  2637     1
  667  2638  2639     1
  668  2638  2640     1
  669  2641  2642     1
  670  2641  2643     1
  671  2644  2645     1
  672  2644  2646     1
  673  2647  2648     1
  674  2647  2649     1
  675  2650  2651     1
  676  2650  2652     1
  677  2653  2654     1
  678  2653  2655     1
  679  2656  2657     1
  680  2656  2658     1
  681  2659  2660     1
  682  2659  2661     1
  683  2662  2663     1
  684  2662  2664     1
  685  2665  2666     1
  686  2665  2667     1
  687  2668  2669     1
  688  2668  2670     1
  689  2671  2672     1
  690  2671  2673     1
  691  2674  2675     1
  692  2674  2676     1
  693  2677  2678     1
  694  2677  2679     1
  695  2680  2681     1
  696  2680  2682     1
  697  2683  2684     1
  698  2683  2685     1
  699  2686  2687     1
  700  2686  2688     1
  701  2689  2690     1
  702  2689  2691     1
  703  2692  2693     1
  704  2692  2694     1
  705  2695  2696     1
  706  2695  2697     1
  707  2698  2699     1
  708  2698  2700     1
  709  2701  2702     1
  710  2701  2703     1
  711  2704  2705     1
  712  2704  2706     1
  713  2707  2708     1
  714  2707  2709     1
  715  2710  2711     1
  716  2710  2712     1
  717  2713  2714     1
  718  2713  2715     1
  719  2716  2717     1
  720  2716  2718     1
  721  2719  2720     1
  722  2719  2721     1
  723  2722  2723     1
  724  2722  2724     1
  725  2725  2726     1
  726  2725  2727     1
  727  2728  2729     1
  728  2728  2730     1
  729  2731  2732     1
  730  2731  2733     1
  731  2734  2735     1
  732  2734  2736     1
  733  2737  2738     1
  734  2737  2739     1
  735  2740  2741     1
  736  2740  2742     1
  737  2743  2744     1
  738  2743  2745     1
  739  2746  2747     1
  740  2746  2748     1
  741  2749  2750     1
  742  2749  2751     1
  743  2752  2753     1
  744  2752  2754     1
  745  2755  2756     1
  746  2755  2757     1
  747  2758  2759     1
  748  2758  2760     1
  749  2761  2762     1
  750  2761  2763     1
  751  2764  2765     1
  752  2764  2766     1
  753  2767  2768     1
  754  2767  2769     1
  755  2770  2771     1
  756  2770  2772     1
  757  2773  2774     1
  758  2773  2775     1
  759  2776  2777     1
  760  2776  2778     1
  761  2779  2780     1
  762  2779  2781     1
  763  2782  2783     1
  764  2782  2784     1
  765  2785  2786     1
  766  2785  2787     1
  767  2788  2789     1
  768  2788  2790     1
  769  2791  2792     1
  770  2791  2793     1
  771  2794  2795     1
  772  2794  2796     1
  773  2797  2798     1
  774  2797  2799     1
  775  2800  2801     1
  776  2800  2802     1
  777  2803  2804     1
  778  2803  2805     1
  779  2806  2807     1
  780  2806  2808     1
  781  2809  2810     1
  782  2809  2811     1
  783  2812  2813     1
  784  2812  2814     1
  785  2815  2816     1
  786  2815  2817     1
  787  2818  2819     1
  788  2818  2820     1
  789  2821  2822     1
  790  2821  2823     1
  791  2824  2825     1
  792  2824  2826     1
  793  2827  2828     1
  794  2827  2829     1
  795  2830  2831     1
  796  2830  2832     1
  797  2833  2834     1
  798  2833  2835     1
  799  2836  2837     1
  800  2836  2838     1
  801  2839  2840     1
  802  2839  2841     1
  803  2842  2843     1
  804  2842  2844     1
  805  2845  2846     1
  806  2845  2847     1
  807  2848  2849     1
  808  2848  2850     1
  809  2851  2852     1
  810  2851  2853     1
  811  2854  2855     1
  812  2854  2856     1
  813  2857  2858     1
  814  2857  2859     1
  815  2860  2861     1
  816  2860  2862     1
  817  2863  2864     1
  818  2863  2865     1
  819  2866  2867     1
  820  2866  2868     1
  821  2869  2870     1
  822  2869  2871     1
  823  2872  2873     1
  824  2872  2874     1
  825  2875  2876     1
  826  2875  2877     1
  827  2878  2879     1
  828  2878  2880     1
  829  2881  2882     1
  830  2881  2883     1
  831  2884  2885     1
  832  2884  2886     1
  833  2887  2888     1
  834  2887  2889     1
  835  2890  2891     1
  836  2890  2892     1
  837  2893  2894     1
  838  2893  2895     1
  839  2896  2897     1
  840  2896  2898     1
  841  2899  2900     1
  842  2899  2901     1
  843  2902  2903     1
  844  2902  2904     1
  845  2905  2906     1
  846  2905  2907     1
  847  2908  2909     1
  848  2908  2910     1
  849  2911  2912     1
  850  2911  2913     1
  851  2914  2915     1
  852  2914  2916     1
  853  2917  2918     1
  854  2917  2919     1
  855  2920  2921     1
  856  2920  2922     1
  857  2923  2924     1
  858  2923  2925     1
  859  2926  2927     1
  860  2926  2928     1
  861  2929  2930     1
  862  2929  2931     1
  863  2932  2933     1
  864  2932  2934     1
  865  2935  2936     1
  866  2935  2937     1
  867  2938  2939     1
  868  2938  2940     1
  869  2941  2942     1
  870  2941  2943     1
  871  2944  2945     1
  872  2944  2946     1
  873  2947  2948     1
  874  2947  2949     1
  875  2950  2951     1
  876  2950  2952     1
  877  2953  2954     1
  878  2953  2955     1
  879  2956  2957     1
  880  2956  2958     1
  881  2959  2960     1
  882  2959  2961     1
  883  2962  2963     1
  884  2962  2964     1
  885  2965  2966     1
  886  2965  2967     1
  887  2968  2969     1
  888  2968  2970     1
  889  2971  2972     1
  890  2971  2973     1
  891  2974  2975     1
  892  2974  2976     1
  893  2977  2978     1
  894  2977  2979     1
  895  2980  2981     1
  896  2980  2982     1
  897  2983  2984     1
  898  2983  2985     1
  899  2986  2987     1
  900  2986  2988     1
  901  2989  2990     1
  902  2989  2991     1
  903  2992  2993     1
  904  2992  2994     1
  905  2995  2996     1
  906  2995  2997     1
  907  2998  2999     1
  908  2998  3000     1
  909  3001  3002     1
  910  3001  3003     1
  911  3004  3005     1
  912  3004  3006     1
  913  3007  3008     1
  914  3007  3009     1
  915  3010  3011     1
  916  3010  3012     1
  917  3013  3014     1
  918  3013  3015     1
  919  3016  3017     1
  920  3016  3018     1
  921  3019  3020     1
  922  3019  3021     1
  923  3022  3023     1
  924  3022  3024     1
  925  3025  3026     1
  926  3025  3027     1
  927  3028  3029     1
  928  3028  3030     1
  929  3031  3032     1
  930  3031  3033     1
  931  3034  3035     1
  932  3034  3036     1
  933  3037  3038     1
  934  3037  3039     1
  935  3040  3041     1
  936  3040  3042     1
  937  3043  3044     1
  938  3043  3045     1
  939  3046  3047     1
  940  3046  3048     1
  941  3049  3050     1
  942  3049  3051     1
  943  3052  3053     1
  944  3052  3054     1
  945  3055  3056     1
  946  3055  3057     1
  947  3058  3059     1
  948  3058  3060     1
  949  3061  3062     1
  950  3061  3063     1
  951  3064  3065     1
  952  3064  3066     1
  953  3067  3068     1
  954  3067  3069     1
  955  3070  3071     1
  956  3070  3072     1
  957  3073  3074     1
  958  3073  3075     1
  959  3076  3077     1
  960  3076  3078     1
  961  3079  3080     1
  962  3079  3081     1
  963  3082  3083     1
  964  3082  3084     1
  965  3085  3086     1
  966  3085  3087     1
  967  3088  3089     1
  968  3088  3090     1
  969  3091  3092     1
  970  3091  3093     1
  971  3094  3095     1
  972  3094  3096     1
  973  3097  3098     1
  974  3097  3099     1
  975  3100  3101     1
  976  3100  3102     1
  977  3103  3104     1
  978  3103  3105     1
  979  3106  3107     1
  980  3106  3108     1
  981  3109  3110     1
  982  3109  3111     1
  983  3112  3113     1
  984  3112  3114     1
  985  3115  3116     1
  986  3115  3117     1
  987  3118  3119     1
  988  3118  3120     1
  989  3121  3122     1
  990  3121  3123     1
  991  3124  3125     1
  992  3124  3126     1
  993  3127  3128     1
  994  3127  3129     1
  995  3130  3131     1
  996  3130  3132     1
  997  3133  3134     1
  998  3133  3135     1
  999  3136  3137     1
 1000  3136  3138     1
 1001  3139  3140     1
 1002  3139  3141     1
 1003  3142  3143     1
 1004  3142  3144     1
 1005  3145  3146     1
 1006  3145  3147     1
 1007  3148  3149     1
 1008  3148  3150     1
 1009  3151  3152     1
 1010  3151  3153     1
 1011  3154  3155     1
 1012  3154  3156     1
 1013  3157  3158     1
 1014  3157  3159     1
 1015  3160  3161     1
 1016  3160  3162     1
 1017  3163  3164     1
 1018  3163  3165     1
 1019  3166  3167     1
 1020  3166  3168     1
 1021  3169  3170     1
 1022  3169  3171     1
 1023  3172  3173     1
 1024  3172  3174     1
 1025  3175  3176     1
 1026  3175  3177     1
 1027  3178  3179     1
 1028  3178  3180     1
 1029  3181  3182     1
 1030  3181  3183     1
 1031  3184  3185     1
 1032  3184  3186     1
 1033  3187  3188     1
 1034  3187  3189     1
 1035  3190  3191     1
 1036  3190  3192     1
 1037  3193  3194     1
 1038  3193  3195     1
 1039  3196  3197     1
 1040  3196  3198     1
 1041  3199  3200     1
 1042  3199  3201     1
 1043  3202  3203     1
 1044  3202  3204     1
 1045  3205  3206     1
 1046  3205  3207     1
 1047  3208  3209     1
 1048  3208  3210     1
 1049  3211  3212     1
 1050  3211  3213     1
 1051  3214  3215     1
 1052  3214  3216     1
 1053  3217  3218     1
 1054  3217  3219     1
 1055  3220  3221     1
 1056  3220  3222     1
 1057  3223  3224     1
 1058  3223  3225     1
 1059  3226  3227     1
 1060  3226  3228     1
 1061  3229  3230     1
 1062  3229  3231     1
 1063  3232  3233     1
 1064  3232  3234     1
 1065  3235  3236     1
 1066  3235  3237     1
 1067  3238  3239     1
 1068  3238  3240     1
 1069  3241  3242     1
 1070  3241  3243     1
 1071  3244  3245     1
 1072  3244  3246     1
 1073  3247  3248     1
 1074  3247  3249     1
 1075  3250  3251     1
 1076  3250  3252     1
 1077  3253  3254     1
 1078  3253  3255     1
 1079  3256  3257     1
 1080  3256  3258     1
 1081  3259  3260     1
 1082  3259  3261     1
 1083  3262  3263     1
 1084  3262  3264     1
 1085  3265  3266     1
 1086  3265  3267     1
 1087  3268  3269     1
 1088  3268  3270     1
 1089  3271  3272     1
 1090  3271  3273     1
 1091  3274  3275     1
 1092  3274  3276     1
 1093  3277  3278     1
 1094  3277  3279     1
 1095  3280  3281     1
 1096  3280  3282     1
 1097  3283  3284     1
 1098  3283  3285     1
 1099  3286  3287     1
 1100  3286  3288     1
 1101  3289  3290     1
 1102  3289  3291     1
 1103  3292  3293     1
 1104  3292  3294     1
 1105  3295  3296     1
 1106  3295  3297     1
 1107  3298  3299     1
 1108  3298  3300     1
 1109  3301  3302     1
 1110  3301  3303     1
 1111  3304  3305     1
 1112  3304  3306     1
 1113  3307  3308     1
 1114  3307  3309     1
 1115  3310  3311     1
 1116  3310  3312     1
 1117  3313  3314     1
 1118  3313  3315     1
 1119  3316  3317     1
 1120  3316  3318     1
 1121  3319  3320     1
 1122  3319  3321     1
 1123  3322  3323     1
 1124  3322  3324     1
 1125  3325  3326     1
 1126  3325  3327     1
 1127  3328  3329     1
 1128  3328  3330     1
 1129  3331  3332     1
 1130  3331  3333     1
 1131  3334  3335     1
 1132  3334  3336     1
 1133  3337  3338     1
 1134  3337  3339     1
 1135  3340  3341     1
 1136  3340  3342     1
 1137  3343  3344     1
 1138  3343  3345     1
 1139  3346  3347     1
 1140  3346  3348     1
 1141  3349  3350     1
 1142  3349  3351     1
 1143  3352  3353     1
 1144  3352  3354     1
 1145  3355  3356     1
 1146  3355  3357     1
 1147  3358  3359     1
 1148  3358  3360     1
 1149  3361  3362     1
 1150  3361  3363     1
 1151  3364  3365     1
 1152  3364  3366     1
 1153  3367  3368     1
 1154  3367  3369     1
 1155  3370  3371     1
 1156  3370  3372     1
 1157  3373  3374     1
 1158  3373  3375     1
 1159  3376  3377     1
 1160  3376  3378     1
 1161  3379  3380     1
 1162  3379  3381     1
 1163  3382  3383     1
 1164  3382  3384     1
 1165  3385  3386     1
 1166  3385  3387     1
 1167  3388  3389     1
 1168  3388  3390     1
 1169  3391  3392     1
 1170  3391  3393     1
 1171  3394  3395     1
 1172  3394  3396     1
 1173  3397  3398     1
 1174  3397  3399     1
 1175  3400  3401     1
 1176  3400  3402     1
 1177  3403  3404     1
 1178  3403  3405     1
 1179  3406  3407     1
 1180  3406  3408     1
 1181  3409  3410     1
 1182  3409  3411     1
 1183  3412  3413     1
 1184  3412  3414     1
 1185  3415  3416     1
 1186  3415  3417     1
 1187  3418  3419     1
 1188  3418  3420     1
 1189  3421  3422     1
 1190  3421  3423     1
 1191  3424  3425     1
 1192  3424  3426     1
 1193  3427  3428     1
 1194  3427  3429     1
 1195  3430  3431     1
 1196  3430  3432     1
 1197  3433  3434     1
 1198  3433  3435     1
 1199  3436  3437     1
 1200  3436  3438     1
 1201  3439  3440     1
 1202  3439  3441     1
 1203  3439  3440     1
 1204  3439  3441     1
 1205  3442  3443     1
 1206  3442  3444     1
 1207  3442  3443     1
 1208  3442  3444     1
 1209  3445  3446     1
 1210  3445  3447     1
 1211  3445  3446     1
 1212  3445  3447     1
 1213  3448  3449     1
 1214  3448  3450     1
 1215  3448  3449     1
 1216  3448  3450     1
 1217  3451  3452     1
 1218  3451  3453     1
 1219  3451  3452     1
 1220  3451  3453     1
 1221  3454  3455     1
 1222  3454  3456     1
 1223  3454  3455     1
 1224  3454  3456     1
 1225  3457  3458     1
 1226  3457  3459     1
 1227  3457  3458     1
 1228  3457  3459     1
 1229  3460  3461     1
 1230  3460  3462     1
 1231  3460  3461     1
 1232  3460  3462     1
 1233  3463  3464     1
 1234  3463  3465     1
 1235  3463  3464     1
 1236  3463  3465     1
 1237  3466  3467     1
 1238  3466  3468     1
 1239  3466  3467     1
 1240  3466  3468     1
 1241  3469  3470     1
 1242  3469  3471     1
 1243  3469  3470     1
 1244  3469  3471     1
 1245  3472  3473     1
 1246  3472  3474     1
 1247  3472  3473     1
 1248  3472  3474     1
 1249  3475  3476     1
 1250  3475  3477     1
 1251  3475  3476     1
 1252  3475  3477     1
 1253  3478  3479     1
 1254  3478  3480     1
 1255  3478  3479     1
 1256  3478  3480     1
 1257  3481  3482     1
 1258  3481  3483     1
 1259  3481  3482     1
 1260  3481  3483     1
 1261  3484  3485     1
 1262  3484  3486     1
 1263  3484  3485     1
 1264  3484  3486     1
 1265  3487  3488     1
 1266  3487  3489     1
 1267  3487  3488     1
 1268  3487  3489     1
 1269  3490  3491     1
 1270  3490  3492     1
 1271  3490  3491     1
 1272  3490  3492     1
 1273  3493  3494     1
 1274  3493  3495     1
 1275  3493  3494     1
 1276  3493  3495     1
 1277  3496  3497     1
 1278  3496  3498     1
 1279  3496  3497     1
 1280  3496  3498     1
 1281  3499  3500     1
 1282  3499  3501     1
 1283  3499  3500     1
 1284  3499  3501     1
 1285  3502  3503     1
 1286  3502  3504     1
 1287  3502  3503     1
 1288  3502  3504     1
 1289  3505  3506     1
 1290  3505  3507     1
 1291  3505  3506     1
 1292  3505  3507     1
 1293  3508  3509     1
 1294  3508  3510     1
 1295  3508  3509     1
 1296  3508  3510     1
 1297  3511  3512     1
 1298  3511  3513     1
 1299  3511  3512     1
 1300  3511  3513     1
 1301  3514  3515     1
 1302  3514  3516     1
 1303  3514  3515     1
 1304  3514  3516     1
 1305  3517  3518     1
 1306  3517  3519     1
 1307  3517  3518     1
 1308  3517  3519     1
 1309  3520  3521     1
 1310  3520  3522     1
 1311  3520  3521     1
 1312  3520  3522     1
 1313  3523  3524     1
 1314  3523  3525     1
 1315  3523  3524     1
 1316  3523  3525     1
 1317  3526  3527     1
 1318  3526  3528     1
 1319  3526  3527     1
 1320  3526  3528     1
 1321  3529  3530     1
 1322  3529  3531     1
 1323  3529  3530     1
 1324  3529  3531     1
 1325  3532  3533     1
 1326  3532  3534     1
 1327  3532  3533     1
 1328  3532  3534     1
 1329  3535  3536     1
 1330  3535  3537     1
 1331  3535  3536     1
 1332  3535  3537     1
 1333  3538  3539     1
 1334  3538  3540     1
 1335  3538  3539     1
 1336  3538  3540     1
 1337  3541  3542     1
 1338  3541  3543     1
 1339  3541  3542     1
 1340  3541  3543     1
 1341  3544  3545     1
 1342  3544  3546     1
 1343  3544  3545     1
 1344  3544  3546     1
 1345  3547  3548     1
 1346  3547  3549     1
 1347  3547  3548     1
 1348  3547  3549     1
 1349  3550  3551     1
 1350  3550  3552     1
 1351  3550  3551     1
 1352  3550  3552     1
 1353  3553  3554     1
 1354  3553  3555     1
 1355  3553  3554     1
 1356  3553  3555     1
 1357  3556  3557     1
 1358  3556  3558     1
 1359  3556  3557     1
 1360  3556  3558     1
 1361  3559  3560     1
 1362  3559  3561     1
 1363  3559  3560     1
 1364  3559  3561     1
 1365  3562  3563     1
 1366  3562  3564     1
 1367  3562  3563     1
 1368  3562  3564     1
 1369  3565  3566     1
 1370  3565  3567     1
 1371  3565  3566     1
 1372  3565  3567     1
 1373  3568  3569     1
 1374  3568  3570     1
 1375  3568  3569     1
 1376  3568  3570     1
 1377  3571  3572     1
 1378  3571  3573     1
 1379  3571  3572     1
 1380  3571  3573     1
 1381  3574  3575     1
 1382  3574  3576     1
 1383  3574  3575     1
 1384  3574  3576     1
 1385  3577  3578     1
 1386  3577  3579     1
 1387  3577  3578     1
 1388  3577  3579     1
 1389  3580  3581     1
 1390  3580  3582     1
 1391  3580  3581     1
 1392  3580  3582     1
 1393  3583  3584     1
 1394  3583  3585     1
 1395  3583  3584     1
 1396  3583  3585     1
 1397  3586  3587     1
 1398  3586  3588     1
 1399  3586  3587     1
 1400  3586  3588     1
 1401  3589  3590     1
 1402  3589  3591     1
 1403  3589  3590     1
 1404  3589  3591     1
 1405  3592  3593     1
 1406  3592  3594     1
 1407  3592  3593     1
 1408  3592  3594     1
 1409  3595  3596     1
 1410  3595  3597     1
 1411  3595  3596     1
 1412  3595  3597     1
 1413  3598  3599     1
 1414  3598  3600     1
 1415  3598  3599     1
 1416  3598  3600     1
 1417  3601  3602     1
 1418  3601  3603     1
 1419  3601  3602     1
 1420  3601  3603     1
 1421  3604  3605     1
 1422  3604  3606     1
 1423  3604  3605     1
 1424  3604  3606     1
 1425  3607  3608     1
 1426  3607  3609     1
 1427  3607  3608     1
 1428  3607  3609     1
 1429  3610  3611     1
 1430  3610  3612     1
 1431  3610  3611     1
 1432  3610  3612     1
 1433  3613  3614     1
 1434  3613  3615     1
 1435  3613  3614     1
 1436  3613  3615     1
 1437  3616  3617     1
 1438  3616  3618     1
 1439  3616  3617     1
 1440  3616  3618     1
 1441  3619  3620     1
 1442  3619  3621     1
 1443  3619  3620     1
 1444  3619  3621     1
 1445  3622  3623     1
 1446  3622  3624     1
 1447  3622  3623     1
 1448  3622  3624     1
 1449  3625  3626     1
 1450  3625  3627     1
 1451  3625  3626     1
 1452  3625  3627     1
 1453  3628  3629     1
 1454  3628  3630     1
 1455  3628  3629     1
 1456  3628  3630     1
 1457  3631  3632     1
 1458  3631  3633     1
 1459  3631  3632     1
 1460  3631  3633     1
 1461  3634  3635     1
 1462  3634  3636     1
 1463  3634  3635     1
 1464  3634  3636     1
 1465  3637  3638     1
 1466  3637  3639     1
 1467  3637  3638     1
 1468  3637  3639     1
 1469  3640  3641     1
 1470  3640  3642     1
 1471  3640  3641     1
 1472  3640  3642     1
 1473  3643  3644     1
 1474  3643  3645     1
 1475  3643  3644     1
 1476  3643  3645     1
 1477  3646  3647     1
 1478  3646  3648     1
 1479  3646  3647     1
 1480  3646  3648     1
 1481  3649  3650     1
 1482  3649  3651     1
 1483  3649  3650     1
 1484  3649  3651     1
 1485  3652  3653     1
 1486  3652  3654     1
 1487  3652  3653     1
 1488  3652  3654     1
 1489  3655  3656     1
 1490  3655  3657     1
 1491  3655  3656     1
 1492  3655  3657     1
 1493  3658  3659     1
 1494  3658  3660     1
 1495  3658  3659     1
 1496  3658  3660     1
 1497  3661  3662     1
 1498  3661  3663     1
 1499  3661  3662     1
 1500  3661  3663     1
 1501  3664  3665     1
 1502  3664  3666     1
 1503  3664  3665     1
 1504  3664  3666     1
 1505  3667  3668     1
 1506  3667  3669     1
 1507  3667  3668     1
 1508  3667  3669     1
 1509  3670  3671     1
 1510  3670  3672     1
 1511  3670  3671     1
 1512  3670  3672     1
 1513  3673  3674     1
 1514  3673  3675     1
 1515  3673  3674     1
 1516  3673  3675     1
 1517  3676  3677     1
 1518  3676  3678     1
 1519  3676  3677     1
 1520  3676  3678     1
 1521  3679  3680     1
 1522  3679  3681     1
 1523  3679  3680     1
 1524  3679  3681     1
 1525  3682  3683     1
 1526  3682  3684     1
 1527  3682  3683     1
 1528  3682  3684     1
 1529  3685  3686     1
 1530  3685  3687     1
 1531  3685  3686     1
 1532  3685  3687     1
 1533  3688  3689     1
 1534  3688  3690     1
 1535  3688  3689     1
 1536  3688  3690     1
 1537  3691  3692     1
 1538  3691  3693     1
 1539  3691  3692     1
 1540  3691  3693     1
 1541  3694  3695     1
 1542  3694  3696     1
 1543  3694  3695     1
 1544  3694  3696     1
 1545  3697  3698     1
 1546  3697  3699     1
 1547  3697  3698     1
 1548  3697  3699     1
 1549  3700  3701     1
 1550  3700  3702     1
 1551  3700  3701     1
 1552  3700  3702     1
 1553  3703  3704     1
 1554  3703  3705     1
 1555  3703  3704     1
 1556  3703  3705     1
 1557  3706  3707     1
 1558  3706  3708     1
 1559  3706  3707     1
 1560  3706  3708     1
 1561  3709  3710     1
 1562  3709  3711     1
 1563  3709  3710     1
 1564  3709  3711     1
 1565  3712  3713     1
 1566  3712  3714     1
 1567  3712  3713     1
 1568  3712  3714     1
 1569  3715  3716     1
 1570  3715  3717     1
 1571  3715  3716     1
 1572  3715  3717     1
 1573  3718  3719     1
 1574  3718  3720     1
 1575  3718  3719     1
 1576  3718  3720     1
 1577  3721  3722     1
 1578  3721  3723     1
 1579  3721  3722     1
 1580  3721  3723     1
 1581  3724  3725     1
 1582  3724  3726     1
 1583  3724  3725     1
 1584  3724  3726     1
 1585  3727  3728     1
 1586  3727  3729     1
 1587  3727  3728     1
 1588  3727  3729     1
 1589  3730  3731     1
 1590  3730  3732     1
 1591  3730  3731     1
 1592  3730  3732     1
 1593  3733  3734     1
 1594  3733  3735     1
 1595  3733  3734     1
 1596  3733  3735     1
 1597  3736  3737     1
 1598  3736  3738     1
 1599  3736  3737     1
 1600  3736  3738     1
 1601  3739  3740     1
 1602  3739  3741     1
 1603  3739  3740     1
 1604  3739  3741     1
 1605  3742  3743     1
 1606  3742  3744     1
 1607  3742  3743     1
 1608  3742  3744     1
 1609  3745  3746     1
 1610  3745  3747     1
 1611  3745  3746     1
 1612  3745  3747     1
 1613  3748  3749     1
 1614  3748  3750     1
 1615  3748  3749     1
 1616  3748  3750     1
 1617  3751  3752     1
 1618  3751  3753     1
 1619  3751  3752     1
 1620  3751  3753     1
 1621  3754  3755     1
 1622  3754  3756     1
 1623  3754  3755     1
 1624  3754  3756     1
 1625  3757  3758     1
 1626  3757  3759     1
 1627  3757  3758     1
 1628  3757  3759     1
 1629  3760  3761     1
 1630  3760  3762     1
 1631  3760  3761     1
 1632  3760  3762     1
 1633  3763  3764     1
 1634  3763  3765     1
 1635  3763  3764     1
 1636  3763  3765     1
 1637  3766  3767     1
 1638  3766  3768     1
 1639  3766  3767     1
 1640  3766  3768     1
 1641  3769  3770     1
 1642  3769  3771     1
 1643  3769  3770     1
 1644  3769  3771     1
 1645  3772  3773     1
 1646  3772  3774     1
 1647  3772  3773     1
 1648  3772  3774     1
 1649  3775  3776     1
 1650  3775  3777     1
 1651  3775  3776     1
 1652  3775  3777     1
 1653  3778  3779     1
 1654  3778  3780     1
 1655  3778  3779     1
 1656  3778  3780     1
 1657  3781  3782     1
 1658  3781  3783     1
 1659  3781  3782     1
 1660  3781  3783     1
 1661  3784  3785     1
 1662  3784  3786     1
 1663  3784  3785     1
 1664  3784  3786     1
 1665  3787  3788     1
 1666  3787  3789     1
 1667  3787  3788     1
 1668  3787  3789     1
 1669  3790  3791     1
 1670  3790  3792     1
 1671  3790  3791     1
 1672  3790  3792     1
 1673  3793  3794     1
 1674  3793  3795     1
 1675  3793  3794     1
 1676  3793  3795     1
 1677  3796  3797     1
 1678  3796  3798     1
 1679  3796  3797     1
 1680  3796  3798     1
 1681  3799  3800     1
 1682  3799  3801     1
 1683  3799  3800     1
 1684  3799  3801     1
 1685  3802  3803     1
 1686  3802  3804     1
 1687  3802  3803     1
 1688  3802  3804     1
 1689  3805  3806     1
 1690  3805  3807     1
 1691  3805  3806     1
 1692  3805  3807     1
 1693  3808  3809     1
 1694  3808  3810     1
 1695  3808  3809     1
 1696  3808  3810     1
 1697  3811  3812     1
 1698  3811  3813     1
 1699  3811  3812     1
 1700  3811  3813     1
 1701  3814  3815     1
 1702  3814  3816     1
 1703  3814  3815     1
 1704  3814  3816     1
 1705  3817  3818     1
 1706  3817  3819     1
 1707  3817  3818     1
 1708  3817  3819     1
 1709  3820  3821     1
 1710  3820  3822     1
 1711  3820  3821     1
 1712  3820  3822     1
 1713  3823  3824     1
 1714  3823  3825     1
 1715  3823  3824     1
 1716  3823  3825     1
 1717  3826  3827     1
 1718  3826  3828     1
 1719  3826  3827     1
 1720  3826  3828     1
 1721  3829  3830     1
 1722  3829  3831     1
 1723  3829  3830     1
 1724  3829  3831     1
 1725  3832  3833     1
 1726  3832  3834     1
 1727  3832  3833     1
 1728  3832  3834     1
 1729  3835  3836     1
 1730  3835  3837     1
 1731  3835  3836     1
 1732  3835  3837     1
 1733  3838  3839     1
 1734  3838  3840     1
 1735  3838  3839     1
 1736  3838  3840     1
 1737  3841  3842     1
 1738  3841  3843     1
 1739  3841  3842     1
 1740  3841  3843     1
 1741  3844  3845     1
 1742  3844  3846     1
 1743  3844  3845     1
 1744  3844  3846     1
 1745  3847  3848     1
 1746  3847  3849     1
 1747  3847  3848     1
 1748  3847  3849     1
 1749  3850  3851     1
 1750  3850  3852     1
 1751  3850  3851     1
 1752  3850  3852     1
 1753  3853  3854     1
 1754  3853  3855     1
 1755  3853  3854     1
 1756  3853  3855     1
 1757  3856  3857     1
 1758  3856  3858     1
 1759  3856  3857     1
 1760  3856  3858     1
 1761  3859  3860     1
 1762  3859  3861     1
 1763  3859  3860     1
 1764  3859  3861     1
 1765  3862  3863     1
 1766  3862  3864     1
 1767  3862  3863     1
 1768  3862  3864     1
 1769  3865  3866     1
 1770  3865  3867     1
 1771  3865  3866     1
 1772  3865  3867     1
 1773  3868  3869     1
 1774  3868  3870     1
 1775  3868  3869     1
 1776  3868  3870     1
 1777  3871  3872     1
 1778  3871  3873     1
 1779  3871  3872     1
 1780  3871  3873     1
 1781  3874  3875     1
 1782  3874  3876     1
 1783  3874  3875     1
 1784  3874  3876     1
 1785  3877  3878     1
 1786  3877  3879     1
 1787  3877  3878     1
 1788  3877  3879     1
 1789  3880  3881     1
 1790  3880  3882     1
 1791  3880  3881     1
 1792  3880  3882     1
 1793  3883  3884     1
 1794  3883  3885     1
 1795  3883  3884     1
 1796  3883  3885     1
 1797  3886  3887     1
 1798  3886  3888     1
 1799  3886  3887     1
 1800  3886  3888     1
 1801  3889  3890     1
 1802  3889  3891     1
 1803  3889  3890     1
 1804  3889  3891     1
 1805  3892  3893     1
 1806  3892  3894     1
 1807  3892  3893     1
 1808  3892  3894     1
 1809  3895  3896     1
 1810  3895  3897     1
 1811  3895  3896     1
 1812  3895  3897     1
 1813  3898  3899     1
 1814  3898  3900     1
 1815  3898  3899     1
 1816  3898  3900     1
 1817  3901  3902     1
 1818  3901  3903     1
 1819  3901  3902     1
 1820  3901  3903     1
 1821  3904  3905     1
 1822  3904  3906     1
 1823  3904  3905     1
 1824  3904  3906     1
 1825  3907  3908     1
 1826  3907  3909     1
 1827  3907  3908     1
 1828  3907  3909     1
 1829  3910  3911     1
 1830  3910  3912     1
 1831  3910  3911     1
 1832  3910  3912     1
 1833  3913  3914     1
 1834  3913  3915     1
 1835  3913  3914     1
 1836  3913  3915     1
 1837  3916  3917     1
 1838  3916  3918     1
 1839  3916  3917     1
 1840  3916  3918     1
 1841  3919  3920     1
 1842  3919  3921     1
 1843  3919  3920     1
 1844  3919  3921     1
 1845  3922  3923     1
 1846  3922  3924     1
 1847  3922  3923     1
 1848  3922  3924     1
 1849  3925  3926     1
 1850  3925  3927     1
 1851  3925  3926     1
 1852  3925  3927     1
 1853  3928  3929     1
 1854  3928  3930     1
 1855  3928  3929     1
 1856  3928  3930     1
 1857  3931  3932     1
 1858  3931  3933     1
 1859  3931  3932     1
 1860  3931  3933     1
 1861  3934  3935     1
 1862  3934  3936     1
 1863  3934  3935     1
 1864  3934  3936     1
 1865  3937  3938     1
 1866  3937  3939     1
 1867  3937  3938     1
 1868  3937  3939     1
 1869  3940  3941     1
 1870  3940  3942     1
 1871  3940  3941     1
 1872  3940  3942     1
 1873  3943  3944     1
 1874  3943  3945     1
 1875  3943  3944     1
 1876  3943  3945     1
 1877  3946  3947     1
 1878  3946  3948     1
 1879  3946  3947     1
 1880  3946  3948     1
 1881  3949  3950     1
 1882  3949  3951     1
 1883  3949  3950     1
 1884  3949  3951     1
 1885  3952  3953     1
 1886  3952  3954     1
 1887  3952  3953     1
 1888  3952  3954     1
 1889  3955  3956     1
 1890  3955  3957     1
 1891  3955  3956     1
 1892  3955  3957     1
 1893  3958  3959     1
 1894  3958  3960     1
 1895  3958  3959     1
 1896  3958  3960     1
 1897  3961  3962     1
 1898  3961  3963     1
 1899  3961  3962     1
 1900  3961  3963     1
 1901  3964  3965     1
 1902  3964  3966     1
 1903  3964  3965     1
 1904  3964  3966     1
 1905  3967  3968     1
 1906  3967  3969     1
 1907  3967  3968     1
 1908  3967  3969     1
 1909  3970  3971     1
 1910  3970  3972     1
 1911  3970  3971     1
 1912  3970  3972     1
 1913  3973  3974     1
 1914  3973  3975     1
 1915  3973  3974     1
 1916  3973  3975     1
 1917  3976  3977     1
 1918  3976  3978     1
 1919  3976  3977     1
 1920  3976  3978     1
 1921  3979  3980     1
 1922  3979  3981     1
 1923  3979  3980     1
 1924  3979  3981     1
 1925  3982  3983     1
 1926  3982  3984     1
 1927  3982  3983     1
 1928  3982  3984     1
 1929  3985  3986     1
 1930  3985  3987     1
 1931  3985  3986     1
 1932  3985  3987     1
 1933  3988  3989     1
 1934  3988  3990     1
 1935  3988  3989     1
 1936  3988  3990     1
 1937  3991  3992     1
 1938  3991  3993     1
 1939  3991  3992     1
 1940  3991  3993     1
 1941  3994  3995     1
 1942  3994  3996     1
 1943  3994  3995     1
 1944  3994  3996     1
 1945  3997  3998     1
 1946  3997  3999     1
 1947  3997  3998     1
 1948  3997  3999     1
 1949  4000  4001     1
 1950  4000  4002     1
 1951  4000  4001     1
 1952  4000  4002     1
 1953  4003  4004     1
 1954  4003  4005     1
 1955  4003  4004     1
 1956  4003  4005     1
 1957  4006  4007     1
 1958  4006  4008     1
 1959  4006  4007     1
 1960  4006  4008     1
 1961  4009  4010     1
 1962  4009  4011     1
 1963  4009  4010     1
 1964  4009  4011     1
 1965  4012  4013     1
 1966  4012  4014     1
 1967  4012  4013     1
 1968  4012  4014     1
 1969  4015  4016     1
 1970  4015  4017     1
 1971  4015  4016     1
 1972  4015  4017     1
 1973  4018  4019     1
 1974  4018  4020     1
 1975  4018  4019     1
 1976  4018  4020     1
 1977  4021  4022     1
 1978  4021  4023     1
 1979  4021  4022     1
 1980  4021  4023     1
 1981  4024  4025     1
 1982  4024  4026     1
 1983  4024  4025     1
 1984  4024  4026     1
 1985  4027  4028     1
 1986  4027  4029     1
 1987  4027  4028     1
 1988  4027  4029     1
 1989  4030  4031     1
 1990  4030  4032     1
 1991  4030  4031     1
 1992  4030  4032     1
 1993  4033  4034     1
 1994  4033  4035     1
 1995  4033  4034     1
 1996  4033  4035     1
 1997  4036  4037     1
 1998  4036  4038     1
 1999  4036  4037     1
 2000  4036  4038     1
 2001  4039  4040     1
 2002  4039  4041     1
 2003  4039  4040     1
 2004  4039  4041     1
 2005  4042  4043     1
 2006  4042  4044     1
 2007  4042  4043     1
 2008  4042  4044     1
 2009  4045  4046     1
 2010  4045  4047     1
 2011  4045  4046     1
 2012  4045  4047     1
 2013  4048  4049     1
 2014  4048  4050     1
 2015  4048  4049     1
 2016  4048  4050     1
 2017  4051  4052     1
 2018  4051  4053     1
 2019  4051  4052     1
 2020  4051  4053     1
 2021  4054  4055     1
 2022  4054  4056     1
 2023  4054  4055     1
 2024  4054  4056     1
 2025  4057  4058     1
 2026  4057  4059     1
 2027  4057  4058     1
 2028  4057  4059     1
 2029  4060  4061     1
 2030  4060  4062     1
 2031  4060  4061     1
 2032  4060  4062     1
 2033  4063  4064     1
 2034  4063  4065     1
 2035  4063  4064     1
 2036  4063  4065     1
 2037  4066  4067     1
 2038  4066  4068     1
 2039  4066  4067     1
 2040  4066  4068     1
 2041  4069  4070     1
 2042  4069  4071     1
 2043  4069  4070     1
 2044  4069  4071     1
 2045  4072  4073     1
 2046  4072  4074     1
 2047  4072  4073     1
 2048  4072  4074     1
 2049  4075  4076     1
 2050  4075  4077     1
 2051  4075  4076     1
 2052  4075  4077     1
 2053  4078  4079     1
 2054  4078  4080     1
 2055  4078  4079     1
 2056  4078  4080     1
 2057  4081  4082     1
 2058  4081  4083     1
 2059  4081  4082     1
 2060  4081  4083     1
 2061  4084  4085     1
 2062  4084  4086     1
 2063  4084  4085     1
 2064  4084  4086     1
 2065  4087  4088     1
 2066  4087  4089     1
 2067  4087  4088     1
 2068  4087  4089     1
 2069  4090  4091     1
 2070  4090  4092     1
 2071  4090  4091     1
 2072  4090  4092     1
 2073  4093  4094     1
 2074  4093  4095     1
 2075  4093  4094     1
 2076  4093  4095     1
 2077  4096  4097     1
 2078  4096  4098     1
 2079  4096  4097     1
 2080  4096  4098     1
 2081  4099  4100     1
 2082  4099  4101     1
 2083  4099  4100     1
 2084  4099  4101     1
 2085  4102  4103     1
 2086  4102  4104     1
 2087  4102  4103     1
 2088  4102  4104     1
 2089  4105  4106     1
 2090  4105  4107     1
 2091  4105  4106     1
 2092  4105  4107     1
 2093  4108  4109     1
 2094  4108  4110     1
 2095  4108  4109     1
 2096  4108  4110     1
 2097  4111  4112     1
 2098  4111  4113     1
 2099  4111  4112     1
 2100  4111  4113     1
 2101  4114  4115     1
 2102  4114  4116     1
 2103  4114  4115     1
 2104  4114  4116     1
 2105  4117  4118     1
 2106  4117  4119     1
 2107  4117  4118     1
 2108  4117  4119     1
 2109  4120  4121     1
 2110  4120  4122     1
 2111  4120  4121     1
 2112  4120  4122     1
 2113  4123  4124     1
 2114  4123  4125     1
 2115  4123  4124     1
 2116  4123  4125     1
 2117  4126  4127     1
 2118  4126  4128     1
 2119  4126  4127     1
 2120  4126  4128     1
 2121  4129  4130     1
 2122  4129  4131     1
 2123  4129  4130     1
 2124  4129  4131     1
 2125  4132  4133     1
 2126  4132  4134     1
 2127  4132  4133     1
 2128  4132  4134     1
 2129  4135  4136     1
 2130  4135  4137     1
 2131  4135  4136     1
 2132  4135  4137     1
 2133  4138  4139     1
 2134  4138  4140     1
 2135  4138  4139     1
 2136  4138  4140     1
 2137  4141  4142     1
 2138  4141  4143     1
 2139  4141  4142     1
 2140  4141  4143     1
 2141  4144  4145     1
 2142  4144  4146     1
 2143  4144  4145     1
 2144  4144  4146     1
 2145  4147  4148     1
 2146  4147  4149     1
 2147  4147  4148     1
 2148  4147  4149     1
 2149  4150  4151     1
 2150  4150  4152     1
 2151  4150  4151     1
 2152  4150  4152     1
 2153  4153  4154     1
 2154  4153  4155     1
 2155  4153  4154     1
 2156  4153  4155     1
 2157  4156  4157     1
 2158  4156  4158     1
 2159  4156  4157     1
 2160  4156  4158     1
 2161  4159  4160     1
 2162  4159  4161     1
 2163  4159  4160     1
 2164  4159  4161     1
 2165  4162  4163     1
 2166  4162  4164     1
 2167  4162  4163     1
 2168  4162  4164     1
 2169  4165  4166     1
 2170  4165  4167     1
 2171  4165  4166     1
 2172  4165  4167     1
 2173  4168  4169     1
 2174  4168  4170     1
 2175  4168  4169     1
 2176  4168  4170     1
 2177  4171  4172     1
 2178  4171  4173     1
 2179  4171  4172     1
 2180  4171  4173     1
 2181  4174  4175     1
 2182  4174  4176     1
 2183  4174  4175     1
 2184  4174  4176     1
 2185  4177  4178     1
 2186  4177  4179     1
 2187  4177  4178     1
 2188  4177  4179     1
 2189  4180  4181     1
 2190  4180  4182     1
 2191  4180  4181     1
 2192  4180  4182     1
 2193  4183  4184     1
 2194  4183  4185     1
 2195  4183  4184     1
 2196  4183  4185     1
 2197  4186  4187     1
 2198  4186  4188     1
 2199  4186  4187     1
 2200  4186  4188     1
 2201  4189  4190     1
 2202  4189  4191     1
 2203  4189  4190     1
 2204  4189  4191     1
 2205  4192  4193     1
 2206  4192  4194     1
 2207  4192  4193     1
 2208  4192  4194     1
 2209  4195  4196     1
 2210  4195  4197     1
 2211  4195  4196     1
 2212  4195  4197     1
 2213  4198  4199     1
 2214  4198  4200     1
 2215  4198  4199     1
 2216  4198  4200     1
 2217  4201  4202     1
 2218  4201  4203     1
 2219  4201  4202     1
 2220  4201  4203     1
 2221  4204  4205     1
 2222  4204  4206     1
 2223  4204  4205     1
 2224  4204  4206     1
 2225  4207  4208     1
 2226  4207  4209     1
 2227  4207  4208     1
 2228  4207  4209     1
 2229  4210  4211     1
 2230  4210  4212     1
 2231  4210  4211     1
 2232  4210  4212     1
 2233  4213  4214     1
 2234  4213  4215     1
 2235  4213  4214     1
 2236  4213  4215     1
 2237  4216  4217     1
 2238  4216  4218     1
 2239  4216  4217     1
 2240  4216  4218     1
 2241  4219  4220     1
 2242  4219  4221     1
 2243  4219  4220     1
 2244  4219  4221     1
 2245  4222  4223     1
 2246  4222  4224     1
 2247  4222  4223     1
 2248  4222  4224     1
 2249  4225  4226     1
 2250  4225  4227     1
 2251  4225  4226     1
 2252  4225  4227     1
 2253  4228  4229     1
 2254  4228  4230     1
 2255  4228  4229     1
 2256  4228  4230     1
 2257  4231  4232     1
 2258  4231  4233     1
 2259  4231  4232     1
 2260  4231  4233     1
 2261  4234  4235     1
 2262  4234  4236     1
 2263  4234  4235     1
 2264  4234  4236     1
 2265  4237  4238     1
 2266  4237  4239     1
 2267  4237  4238     1
 2268  4237  4239     1
 2269  4240  4241     1
 2270  4240  4242     1
 2271  4240  4241     1
 2272  4240  4242     1
 2273  4243  4244     1
 2274  4243  4245     1
 2275  4243  4244     1
 2276  4243  4245     1
 2277  4246  4247     1
 2278  4246  4248     1
 2279  4246  4247     1
 2280  4246  4248     1
 2281  4249  4250     1
 2282  4249  4251     1
 2283  4249  4250     1
 2284  4249  4251     1
 2285  4252  4253     1
 2286  4252  4254     1
 2287  4252  4253     1
 2288  4252  4254     1
 2289  4255  4256     1
 2290  4255  4257     1
 2291  4255  4256     1
 2292  4255  4257     1
 2293  4258  4259     1
 2294  4258  4260     1
 2295  4258  4259     1
 2296  4258  4260     1
 2297  4261  4262     1
 2298  4261  4263     1
 2299  4261  4262     1
 2300  4261  4263     1
 2301  4264  4265     1
 2302  4264  4266     1
 2303  4264  4265     1
 2304  4264  4266     1
 2305  4267  4268     1
 2306  4267  4269     1
 2307  4267  4268     1
 2308  4267  4269     1
 2309  4270  4271     1
 2310  4270  4272     1
 2311  4270  4271     1
 2312  4270  4272     1
 2313  4273  4274     1
 2314  4273  4275     1
 2315  4273  4274     1
 2316  4273  4275     1
 2317  4276  4277     1
 2318  4276  4278     1
 2319  4276  4277     1
 2320  4276  4278     1
 2321  4279  4280     1
 2322  4279  4281     1
 2323  4279  4280     1
 2324  4279  4281     1
 2325  4282  4283     1
 2326  4282  4284     1
 2327  4282  4283     1
 2328  4282  4284     1
 2329  4285  4286     1
 2330  4285  4287     1
 2331  4285  4286     1
 2332  4285  4287     1
 2333  4288  4289     1
 2334  4288  4290     1
 2335  4288  4289     1
 2336  4288  4290     1
 2337  4291  4292     1
 2338  4291  4293     1
 2339  4291  4292     1
 2340  4291  4293     1
 2341  4294  4295     1
 2342  4294  4296     1
 2343  4294  4295     1
 2344  4294  4296     1
 2345  4297  4298     1
 2346  4297  4299     1
 2347  4297  4298     1
 2348  4297  4299     1
 2349  4300  4301     1
 2350  4300  4302     1
 2351  4300  4301     1
 2352  4300  4302     1
 2353  4303  4304     1
 2354  4303  4305     1
 2355  4303  4304     1
 2356  4303  4305     1
 2357  4306  4307     1
 2358  4306  4308     1
 2359  4306  4307     1
 2360  4306  4308     1
 2361  4309  4310     1
 2362  4309  4311     1
 2363  4309  4310     1
 2364  4309  4311     1
 2365  4312  4313     1
 2366  4312  4314     1
 2367  4312  4313     1
 2368  4312  4314     1
 2369  4315  4316     1
 2370  4315  4317     1
 2371  4315  4316     1
 2372  4315  4317     1
 2373  4318  4319     1
 2374  4318  4320     1
 2375  4318  4319     1
 2376  4318  4320     1
 2377  4321  4322     1
 2378  4321  4323     1
 2379  4321  4322     1
 2380  4321  4323     1
 2381  4324  4325     1
 2382  4324  4326     1
 2383  4324  4325     1
 2384  4324  4326     1
 2385  4327  4328     1
 2386  4327  4329     1
 2387  4327  4328     1
 2388  4327  4329     1
 2389  4330  4331     1
 2390  4330  4332     1
 2391  4330  4331     1
 2392  4330  4332     1
 2393  4333  4334     1
 2394  4333  4335     1
 2395  4333  4334     1
 2396  4333  4335     1
 2397  4336  4337     1
 2398  4336  4338     1
 2399  4336  4337     1
 2400  4336  4338     1
 2401  4339  4340     1
 2402  4339  4341     1
 2403  4339  4340     1
 2404  4339  4341     1
 2405  4342  4343     1
 2406  4342  4344     1
 2407  4342  4343     1
 2408  4342  4344     1
 2409  4345  4346     1
 2410  4345  4347     1
 2411  4345  4346     1
 2412  4345  4347     1
 2413  4348  4349     1
 2414  4348  4350     1
 2415  4348  4349     1
 2416  4348  4350     1
 2417  4351  4352     1
 2418  4351  4353     1
 2419  4351  4352     1
 2420  4351  4353     1
 2421  4354  4355     1
 2422  4354  4356     1
 2423  4354  4355     1
 2424  4354  4356     1
 2425  4357  4358     1
 2426  4357  4359     1
 2427  4357  4358     1
 2428  4357  4359     1
 2429  4360  4361     1
 2430  4360  4362     1
 2431  4360  4361     1
 2432  4360  4362     1
 2433  4363  4364     1
 2434  4363  4365     1
 2435  4363  4364     1
 2436  4363  4365     1
 2437  4366  4367     1
 2438  4366  4368     1
 2439  4366  4367     1
 2440  4366  4368     1
 2441  4369  4370     1
 2442  4369  4371     1
 2443  4369  4370     1
 2444  4369  4371     1
 2445  4372  4373     1
 2446  4372  4374     1
 2447  4372  4373     1
 2448  4372  4374     1
 2449  4375  4376     1
 2450  4375  4377     1
 2451  4375  4376     1
 2452  4375  4377     1
 2453  4378  4379     1
 2454  4378  4380     1
 2455  4378  4379     1
 2456  4378  4380     1
 2457  4381  4382     1
 2458  4381  4383     1
 2459  4381  4382     1
 2460  4381  4383     1
 2461  4384  4385     1
 2462  4384  4386     1
 2463  4384  4385     1
 2464  4384  4386     1
 2465  4387  4388     1
 2466  4387  4389     1
 2467  4387  4388     1
 2468  4387  4389     1
 2469  4390  4391     1
 2470  4390  4392     1
 2471  4390  4391     1
 2472  4390  4392     1
 2473  4393  4394     1
 2474  4393  4395     1
 2475  4393  4394     1
 2476  4393  4395     1
 2477  4396  4397     1
 2478  4396  4398     1
 2479  4396  4397     1
 2480  4396  4398     1
 2481  4399  4400     1
 2482  4399  4401     1
 2483  4399  4400     1
 2484  4399  4401     1
 2485  4402  4403     1
 2486  4402  4404     1
 2487  4402  4403     1
 2488  4402  4404     1
 2489  4405  4406     1
 2490  4405  4407     1
 2491  4405  4406     1
 2492  4405  4407     1
 2493  4408  4409     1
 2494  4408  4410     1
 2495  4408  4409     1
 2496  4408  4410     1
 2497  4411  4412     1
 2498  4411  4413     1
 2499  4411  4412     1
 2500  4411  4413     1
 2501  4414  4415     1
 2502  4414  4416     1
 2503  4414  4415     1
 2504  4414  4416     1
 2505  4417  4418     1
 2506  4417  4419     1
 2507  4417  4418     1
 2508  4417  4419     1
 2509  4420  4421     1
 2510  4420  4422     1
 2511  4420  4421     1
 2512  4420  4422     1
 2513  4423  4424     1
 2514  4423  4425     1
 2515  4423  4424     1
 2516  4423  4425     1
 2517  4426  4427     1
 2518  4426  4428     1
 2519  4426  4427     1
 2520  4426  4428     1
 2521  4429  4430     1
 2522  4429  4431     1
 2523  4429  4430     1
 2524  4429  4431     1
 2525  4432  4433     1
 2526  4432  4434     1
 2527  4432  4433     1
 2528  4432  4434     1
 2529  4435  4436     1
 2530  4435  4437     1
 2531  4435  4436     1
 2532  4435  4437     1
 2533  4438  4439     1
 2534  4438  4440     1
 2535  4438  4439     1
 2536  4438  4440     1
 2537  4441  4442     1
 2538  4441  4443     1
 2539  4441  4442     1
 2540  4441  4443     1
 2541  4444  4445     1
 2542  4444  4446     1
 2543  4444  4445     1
 2544  4444  4446     1
 2545  4447  4448     1
 2546  4447  4449     1
 2547  4447  4448     1
 2548  4447  4449     1
 2549  4450  4451     1
 2550  4450  4452     1
 2551  4450  4451     1
 2552  4450  4452     1
 2553  4453  4454     1
 2554  4453  4455     1
 2555  4453  4454     1
 2556  4453  4455     1
 2557  4456  4457     1
 2558  4456  4458     1
 2559  4456  4457     1
 2560  4456  4458     1
 2561  4459  4460     1
 2562  4459  4461     1
 2563  4459  4460     1
 2564  4459  4461     1
 2565  4462  4463     1
 2566  4462  4464     1
 2567  4462  4463     1
 2568  4462  4464     1
 2569  4465  4466     1
 2570  4465  4467     1
 2571  4465  4466     1
 2572  4465  4467     1
 2573  4468  4469     1
 2574  4468  4470     1
 2575  4468  4469     1
 2576  4468  4470     1
 2577  4471  4472     1
 2578  4471  4473     1
 2579  4471  4472     1
 2580  4471  4473     1
 2581  4474  4475     1
 2582  4474  4476     1
 2583  4474  4475     1
 2584  4474  4476     1
 2585  4477  4478     1
 2586  4477  4479     1
 2587  4477  4478     1
 2588  4477  4479     1
 2589  4480  4481     1
 2590  4480  4482     1
 2591  4480  4481     1
 2592  4480  4482     1
 2593  4483  4484     1
 2594  4483  4485     1
 2595  4483  4484     1
 2596  4483  4485     1
 2597  4486  4487     1
 2598  4486  4488     1
 2599  4486  4487     1
 2600  4486  4488     1
 2601  4489  4490     1
 2602  4489  4491     1
 2603  4489  4490     1
 2604  4489  4491     1
 2605  4492  4493     1
 2606  4492  4494     1
 2607  4492  4493     1
 2608  4492  4494     1
 2609  4495  4496     1
 2610  4495  4497     1
 2611  4495  4496     1
 2612  4495  4497     1
 2613  4498  4499     1
 2614  4498  4500     1
 2615  4498  4499     1
 2616  4498  4500     1
 2617  4501  4502     1
 2618  4501  4503     1
 2619  4501  4502     1
 2620  4501  4503     1
 2621  4504  4505     1
 2622  4504  4506     1
 2623  4504  4505     1
 2624  4504  4506     1
 2625  4507  4508     1
 2626  4507  4509     1
 2627  4507  4508     1
 2628  4507  4509     1
 2629  4510  4511     1
 2630  4510  4512     1
 2631  4510  4511     1
 2632  4510  4512     1
 2633  4513  4514     1
 2634  4513  4515     1
 2635  4513  4514     1
 2636  4513  4515     1
 2637  4516  4517     1
 2638  4516  4518     1
 2639  4516  4517     1
 2640  4516  4518     1
 2641  4519  4520     1
 2642  4519  4521     1
 2643  4519  4520     1
 2644  4519  4521     1
 2645  4522  4523     1
 2646  4522  4524     1
 2647  4522  4523     1
 2648  4522  4524     1
 2649  4525  4526     1
 2650  4525  4527     1
 2651  4525  4526     1
 2652  4525  4527     1
 2653  4528  4529     1
 2654  4528  4530     1
 2655  4528  4529     1
 2656  4528  4530     1
 2657  4531  4532     1
 2658  4531  4533     1
 2659  4531  4532     1
 2660  4531  4533     1
 2661  4534  4535     1
 2662  4534  4536     1
 2663  4534  4535     1
 2664  4534  4536     1
 2665  4537  4538     1
 2666  4537  4539     1
 2667  4537  4538     1
 2668  4537  4539     1
 2669  4540  4541     1
 2670  4540  4542     1
 2671  4540  4541     1
 2672  4540  4542     1
 2673  4543  4544     1
 2674  4543  4545     1
 2675  4543  4544     1
 2676  4543  4545     1
 2677  4546  4547     1
 2678  4546  4548     1
 2679  4546  4547     1
 2680  4546  4548     1
 2681  4549  4550     1
 2682  4549  4551     1
 2683  4549  4550     1
 2684  4549  4551     1
 2685  4552  4553     1
 2686  4552  4554     1
 2687  4552  4553     1
 2688  4552  4554     1
 2689  4555  4556     1
 2690  4555  4557     1
 2691  4555  4556     1
 2692  4555  4557     1
 2693  4558  4559     1
 2694  4558  4560     1
 2695  4558  4559     1
 2696  4558  4560     1
 2697  4561  4562     1
 2698  4561  4563     1
 2699  4561  4562     1
 2700  4561  4563     1
 2701  4564  4565     1
 2702  4564  4566     1
 2703  4564  4565     1
 2704  4564  4566     1
 2705  4567  4568     1
 2706  4567  4569     1
 2707  4567  4568     1
 2708  4567  4569     1
 2709  4570  4571     1
 2710  4570  4572     1
 2711  4570  4571     1
 2712  4570  4572     1
 2713  4573  4574     1
 2714  4573  4575     1
 2715  4573  4574     1
 2716  4573  4575     1
 2717  4576  4577     1
 2718  4576  4578     1
 2719  4576  4577     1
 2720  4576  4578     1
 2721  4579  4580     1
 2722  4579  4581     1
 2723  4579  4580     1
 2724  4579  4581     1
 2725  4582  4583     1
 2726  4582  4584     1
 2727  4582  4583     1
 2728  4582  4584     1
 2729  4585  4586     1
 2730  4585  4587     1
 2731  4585  4586     1
 2732  4585  4587     1
 2733  4588  4589     1
 2734  4588  4590     1
 2735  4588  4589     1
 2736  4588  4590     1
 2737  4591  4592     1
 2738  4591  4593     1
 2739  4591  4592     1
 2740  4591  4593     1
 2741  4594  4595     1
 2742  4594  4596     1
 2743  4594  4595     1
 2744  4594  4596     1
 2745  4597  4598     1
 2746  4597  4599     1
 2747  4597  4598     1
 2748  4597  4599     1
 2749  4600  4601     1
 2750  4600  4602     1
 2751  4600  4601     1
 2752  4600  4602     1
 2753  4603  4604     1
 2754  4603  4605     1
 2755  4603  4604     1
 2756  4603  4605     1
 2757  4606  4607     1
 2758  4606  4608     1
 2759  4606  4607     1
 2760  4606  4608     1
 2761  4609  4610     1
 2762  4609  4611     1
 2763  4609  4610     1
 2764  4609  4611     1
 2765  4612  4613     1
 2766  4612  4614     1
 2767  4612  4613     1
 2768  4612  4614     1
 2769  4615  4616     1
 2770  4615  4617     1
 2771  4615  4616     1
 2772  4615  4617     1
 2773  4618  4619     1
 2774  4618  4620     1
 2775  4618  4619     1
 2776  4618  4620     1
 2777  4621  4622     1
 2778  4621  4623     1
 2779  4621  4622     1
 2780  4621  4623     1
 2781  4624  4625     1
 2782  4624  4626     1
 2783  4624  4625     1
 2784  4624  4626     1
 2785  4627  4628     1
 2786  4627  4629     1
 2787  4627  4628     1
 2788  4627  4629     1
 2789  4630  4631     1
 2790  4630  4632     1
 2791  4630  4631     1
 2792  4630  4632     1
 2793  4633  4634     1
 2794  4633  4635     1
 2795  4633  4634     1
 2796  4633  4635     1
 2797  4636  4637     1
 2798  4636  4638     1
 2799  4636  4637     1
 2800  4636  4638     1
 2801  4639  4640     1
 2802  4639  4641     1
 2803  4639  4640     1
 2804  4639  4641     1
 2805  4642  4643     1
 2806  4642  4644     1
 2807  4642  4643     1
 2808  4642  4644     1
 2809  4645  4646     1
 2810  4645  4647     1
 2811  4645  4646     1
 2812  4645  4647     1
 2813  4648  4649     1
 2814  4648  4650     1
 2815  4648  4649     1
 2816  4648  4650     1
 2817  4651  4652     1
 2818  4651  4653     1
 2819  4651  4652     1
 2820  4651  4653     1
 2821  4654  4655     1
 2822  4654  4656     1
 2823  4654  4655     1
 2824  4654  4656     1
 2825  4657  4658     1
 2826  4657  4659     1
 2827  4657  4658     1
 2828  4657  4659     1
 2829  4660  4661     1
 2830  4660  4662     1
 2831  4660  4661     1
 2832  4660  4662     1
 2833  4663  4664     1
 2834  4663  4665     1
 2835  4663  4664     1
 2836  4663  4665     1
 2837  4666  4667     1
 2838  4666  4668     1
 2839  4666  4667     1
 2840  4666  4668     1
 2841  4669  4670     1
 2842  4669  4671     1
 2843  4669  4670     1
 2844  4669  4671     1
 2845  4672  4673     1
 2846  4672  4674     1
 2847  4672  4673     1
 2848  4672  4674     1
 2849  4675  4676     1
 2850  4675  4677     1
 2851  4675  4676     1
 2852  4675  4677     1
 2853  4678  4679     1
 2854  4678  4680     1
 2855  4678  4679     1
 2856  4678  4680     1
 2857  4681  4682     1
 2858  4681  4683     1
 2859  4681  4682     1
 2860  4681  4683     1
 2861  4684  4685     1
 2862  4684  4686     1
 2863  4684  4685     1
 2864  4684  4686     1
 2865  4687  4688     1
 2866  4687  4689     1
 2867  4687  4688     1
 2868  4687  4689     1
 2869  4690  4691     1
 2870  4690  4692     1
 2871  4690  4691     1
 2872  4690  4692     1
 2873  4693  4694     1
 2874  4693  4695     1
 2875  4693  4694     1
 2876  4693  4695     1
 2877  4696  4697     1
 2878  4696  4698     1
 2879  4696  4697     1
 2880  4696  4698     1
 2881  4699  4700     1
 2882  4699  4701     1
 2883  4699  4700     1
 2884  4699  4701     1
 2885  4702  4703     1
 2886  4702  4704     1
 2887  4702  4703     1
 2888  4702  4704     1
 2889  4705  4706     1
 2890  4705  4707     1
 2891  4705  4706     1
 2892  4705  4707     1
 2893  4708  4709     1
 2894  4708  4710     1
 2895  4708  4709     1
 2896  4708  4710     1
 2897  4711  4712     1
 2898  4711  4713     1
 2899  4711  4712     1
 2900  4711  4713     1
 2901  4714  4715     1
 2902  4714  4716     1
 2903  4714  4715     1
 2904  4714  4716     1
 2905  4717  4718     1
 2906  4717  4719     1
 2907  4717  4718     1
 2908  4717  4719     1
 2909  4720  4721     1
 2910  4720  4722     1
 2911  4720  4721     1
 2912  4720  4722     1
 2913  4723  4724     1
 2914  4723  4725     1
 2915  4723  4724     1
 2916  4723  4725     1
 2917  4726  4727     1
 2918  4726  4728     1
 2919  4726  4727     1
 2920  4726  4728     1
 2921  4729  4730     1
 2922  4729  4731     1
 2923  4729  4730     1
 2924  4729  4731     1
 2925  4732  4733     1
 2926  4732  4734     1
 2927  4732  4733     1
 2928  4732  4734     1
 2929  4735  4736     1
 2930  4735  4737     1
 2931  4735  4736     1
 2932  4735  4737     1
 2933  4738  4739     1
 2934  4738  4740     1
 2935  4738  4739     1
 2936  4738  4740     1
 2937  4741  4742     1
 2938  4741  4743     1
 2939  4741  4742     1
 2940  4741  4743     1
 2941  4744  4745     1
 2942  4744  4746     1
 2943  4744  4745     1
 2944  4744  4746     1
 2945  4747  4748     1
 2946  4747  4749     1
 2947  4747  4748     1
 2948  4747  4749     1
 2949  4750  4751     1
 2950  4750  4752     1
 2951  4750  4751     1
 2952  4750  4752     1
 2953  4753  4754     1
 2954  4753  4755     1
 2955  4753  4754     1
 2956  4753  4755     1
 2957  4756  4757     1
 2958  4756  4758     1
 2959  4756  4757     1
 2960  4756  4758     1
 2961  4759  4760     1
 2962  4759  4761     1
 2963  4759  4760     1
 2964  4759  4761     1
 2965  4762  4763     1
 2966  4762  4764     1
 2967  4762  4763     1
 2968  4762  4764     1
 2969  4765  4766     1
 2970  4765  4767     1
 2971  4765  4766     1
 2972  4765  4767     1
 2973  4768  4769     1
 2974  4768  4770     1
 2975  4768  4769     1
 2976  4768  4770     1
 2977  4771  4772     1
 2978  4771  4773     1
 2979  4771  4772     1
 2980  4771  4773     1
 2981  4774  4775     1
 2982  4774  4776     1
 2983  4774  4775     1
 2984  4774  4776     1
 2985  4777  4778     1
 2986  4777  4779     1
 2987  4777  4778     1
 2988  4777  4779     1
 2989  4780  4781     1
 2990  4780  4782     1
 2991  4780  4781     1
 2992  4780  4782     1
 2993  4783  4784     1
 2994  4783  4785     1
 2995  4783  4784     1
 2996  4783  4785     1
 2997  4786  4787     1
 2998  4786  4788     1
 2999  4786  4787     1
 3000  4786  4788     1
 3001  4789  4790     1
 3002  4789  4791     1
 3003  4789  4790     1
 3004  4789  4791     1
 3005  4792  4793     1
 3006  4792  4794     1
 3007  4792  4793     1
 3008  4792  4794     1
 3009  4795  4796     1
 3010  4795  4797     1
 3011  4795  4796     1
 3012  4795  4797     1
 3013  4798  4799     1
 3014  4798  4800     1
 3015  4798  4799     1
 3016  4798  4800     1
 3017  4801  4802     1
 3018  4801  4803     1
 3019  4801  4802     1
 3020  4801  4803     1
 3021  4804  4805     1
 3022  4804  4806     1
 3023  4804  4805     1
 3024  4804  4806     1
 3025  4807  4808     1
 3026  4807  4809     1
 3027  4807  4808     1
 3028  4807  4809     1
 3029  4810  4811     1
 3030  4810  4812     1
 3031  4810  4811     1
 3032  4810  4812     1
 3033  4813  4814     1
 3034  4813  4815     1
 3035  4813  4814     1
 3036  4813  4815     1
 3037  4816  4817     1
 3038  4816  4818     1
 3039  4816  4817     1
 3040  4816  4818     1
 3041  4819  4820     1
 3042  4819  4821     1
 3043  4819  4820     1
 3044  4819  4821     1
 3045  4822  4823     1
 3046  4822  4824     1
 3047  4822  4823     1
 3048  4822  4824     1
 3049  4825  4826     1
 3050  4825  4827     1
 3051  4825  4826     1
 3052  4825  4827     1
 3053  4828  4829     1
 3054  4828  4830     1
 3055  4828  4829     1
 3056  4828  4830     1
 3057  4831  4832     1
 3058  4831  4833     1
 3059  4831  4832     1
 3060  4831  4833     1
 3061  4834  4835     1
 3062  4834  4836     1
 3063  4834  4835     1
 3064  4834  4836     1
 3065  4837  4838     1
 3066  4837  4839     1
 3067  4837  4838     1
 3068  4837  4839     1
 3069  4840  4841     1
 3070  4840  4842     1
 3071  4840  4841     1
 3072  4840  4842     1
 3073  4843  4844     1
 3074  4843  4845     1
 3075  4843  4844     1
 3076  4843  4845     1
 3077  4846  4847     1
 3078  4846  4848     1
 3079  4846  4847     1
 3080  4846  4848     1
 3081  4849  4850     1
 3082  4849  4851     1
 3083  4849  4850     1
 3084  4849  4851     1
 3085  4852  4853     1
 3086  4852  4854     1
 3087  4852  4853     1
 3088  4852  4854     1
 3089  4855  4856     1
 3090  4855  4857     1
 3091  4855  4856     1
 3092  4855  4857     1
 3093  4858  4859     1
 3094  4858  4860     1
 3095  4858  4859     1
 3096  4858  4860     1
 3097  4861  4862     1
 3098  4861  4863     1
 3099  4861  4862     1
 3100  4861  4863     1
 3101  4864  4865     1
 3102  4864  4866     1
 3103  4864  4865     1
 3104  4864  4866     1
 3105  4867  4868     1
 3106  4867  4869     1
 3107  4867  4868     1
 3108  4867  4869     1
 3109  4870  4871     1
 3110  4870  4872     1
 3111  4870  4871     1
 3112  4870  4872     1
 3113  4873  4874     1
 3114  4873  4875     1
 3115  4873  4874     1
 3116  4873  4875     1
 3117  4876  4877     1
 3118  4876  4878     1
 3119  4876  4877     1
 3120  4876  4878     1
 3121  4879  4880     1
 3122  4879  4881     1
 3123  4879  4880     1
 3124  4879  4881     1
 3125  4882  4883     1
 3126  4882  4884     1
 3127  4882  4883     1
 3128  4882  4884     1
 3129  4885  4886     1
 3130  4885  4887     1
 3131  4885  4886     1
 3132  4885  4887     1
 3133  4888  4889     1
 3134  4888  4890     1
 3135  4888  4889     1
 3136  4888  4890     1
 3137  4891  4892     1
 3138  4891  4893     1
 3139  4891  4892     1
 3140  4891  4893     1
 3141  4894  4895     1
 3142  4894  4896     1
 3143  4894  4895     1
 3144  4894  4896     1
 3145  4897  4898     1
 3146  4897  4899     1
 3147  4897  4898     1
 3148  4897  4899     1
 3149  4900  4901     1
 3150  4900  4902     1
 3151  4900  4901     1
 3152  4900  4902     1
 3153  4903  4904     1
 3154  4903  4905     1
 3155  4903  4904     1
 3156  4903  4905     1
 3157  4906  4907     1
 3158  4906  4908     1
 3159  4906  4907     1
 3160  4906  4908     1
 3161  4909  4910     1
 3162  4909  4911     1
 3163  4909  4910     1
 3164  4909  4911     1
 3165  4912  4913     1
 3166  4912  4914     1
 3167  4912  4913     1
 3168  4912  4914     1
 3169  4915  4916     1
 3170  4915  4917     1
 3171  4915  4916     1
 3172  4915  4917     1
 3173  4918  4919     1
 3174  4918  4920     1
 3175  4918  4919     1
 3176  4918  4920     1
 3177  4921  4922     1
 3178  4921  4923     1
 3179  4921  4922     1
 3180  4921  4923     1
 3181  4924  4925     1
 3182  4924  4926     1
 3183  4924  4925     1
 3184  4924  4926     1
 3185  4927  4928     1
 3186  4927  4929     1
 3187  4927  4928     1
 3188  4927  4929     1
 3189  4930  4931     1
 3190  4930  4932     1
 3191  4930  4931     1
 3192  4930  4932     1
 3193  4933  4934     1
 3194  4933  4935     1
 3195  4933  4934     1
 3196  4933  4935     1
 3197  4936  4937     1
 3198  4936  4938     1
 3199  4936  4937     1
 3200  4936  4938     1
 3201  4939  4940     1
 3202  4939  4941     1
 3203  4939  4940     1
 3204  4939  4941     1
 3205  4942  4943     1
 3206  4942  4944     1
 3207  4942  4943     1
 3208  4942  4944     1
 3209  4945  4946     1
 3210  4945  4947     1
 3211  4945  4946     1
 3212  4945  4947     1
 3213  4948  4949     1
 3214  4948  4950     1
 3215  4948  4949     1
 3216  4948  4950     1
 3217  4951  4952     1
 3218  4951  4953     1
 3219  4951  4952     1
 3220  4951  4953     1
 3221  4954  4955     1
 3222  4954  4956     1
 3223  4954  4955     1
 3224  4954  4956     1
 3225  4957  4958     1
 3226  4957  4959     1
 3227  4957  4958     1
 3228  4957  4959     1
 3229  4960  4961     1
 3230  4960  4962     1
 3231  4960  4961     1
 3232  4960  4962     1
 3233  4963  4964     1
 3234  4963  4965     1
 3235  4963  4964     1
 3236  4963  4965     1
 3237  4966  4967     1
 3238  4966  4968     1
 3239  4966  4967     1
 3240  4966  4968     1
 3241  4969  4970     1
 3242  4969  4971     1
 3243  4969  4970     1
 3244  4969  4971     1
 3245  4972  4973     1
 3246  4972  4974     1
 3247  4972  4973     1
 3248  4972  4974     1
 3249  4975  4976     1
 3250  4975  4977     1
 3251  4975  4976     1
 3252  4975  4977     1
 3253  4978  4979     1
 3254  4978  4980     1
 3255  4978  4979     1
 3256  4978  4980     1
 3257  4981  4982     1
 3258  4981  4983     1
 3259  4981  4982     1
 3260  4981  4983     1
 3261  4984  4985     1
 3262  4984  4986     1
 3263  4984  4985     1
 3264  4984  4986     1
 3265  4987  4988     1
 3266  4987  4989     1
 3267  4987  4988     1
 3268  4987  4989     1
 3269  4990  4991     1
 3270  4990  4992     1
 3271  4990  4991     1
 3272  4990  4992     1
 3273  4993  4994     1
 3274  4993  4995     1
 3275  4993  4994     1
 3276  4993  4995     1
 3277  4996  4997     1
 3278  4996  4998     1
 3279  4996  4997     1
 3280  4996  4998     1
 3281  4999  5000     1
 3282  4999  5001     1
 3283  4999  5000     1
 3284  4999  5001     1
 3285  5002  5003     1
 3286  5002  5004     1
 3287  5002  5003     1
 3288  5002  5004     1
 3289  5005  5006     1
 3290  5005  5007     1
 3291  5005  5006     1
 3292  5005  5007     1
 3293  5008  5009     1
 3294  5008  5010     1
 3295  5008  5009     1
 3296  5008  5010     1
 3297  5011  5012     1
 3298  5011  5013     1
 3299  5011  5012     1
 3300  5011  5013     1
 3301  5014  5015     1
 3302  5014  5016     1
 3303  5014  5015     1
 3304  5014  5016     1
 3305  5017  5018     1
 3306  5017  5019     1
 3307  5017  5018     1
 3308  5017  5019     1
 3309  5020  5021     1
 3310  5020  5022     1
 3311  5020  5021     1
 3312  5020  5022     1
 3313  5023  5024     1
 3314  5023  5025     1
 3315  5023  5024     1
 3316  5023  5025     1
 3317  5026  5027     1
 3318  5026  5028     1
 3319  5026  5027     1
 3320  5026  5028     1
 3321  5029  5030     1
 3322  5029  5031     1
 3323  5029  5030     1
 3324  5029  5031     1
 3325  5032  5033     1
 3326  5032  5034     1
 3327  5032  5033     1
 3328  5032  5034     1
 3329  5035  5036     1
 3330  5035  5037     1
 3331  5035  5036     1
 3332  5035  5037     1
 3333  5038  5039     1
 3334  5038  5040     1
 3335  5038  5039     1
 3336  5038  5040     1
 3337  5041  5042     1
 3338  5041  5043     1
 3339  5041  5042     1
 3340  5041  5043     1
 3341  5044  5045     1
 3342  5044  5046     1
 3343  5044  5045     1
 3344  5044  5046     1
 3345  5047  5048     1
 3346  5047  5049     1
 3347  5047  5048     1
 3348  5047  5049     1
 3349  5050  5051     1
 3350  5050  5052     1
 3351  5050  5051     1
 3352  5050  5052     1
 3353  5053  5054     1
 3354  5053  5055     1
 3355  5053  5054     1
 3356  5053  5055     1
 3357  5056  5057     1
 3358  5056  5058     1
 3359  5056  5057     1
 3360  5056  5058     1
 3361  5059  5060     1
 3362  5059  5061     1
 3363  5059  5060     1
 3364  5059  5061     1
 3365  5062  5063     1
 3366  5062  5064     1
 3367  5062  5063     1
 3368  5062  5064     1
 3369  5065  5066     1
 3370  5065  5067     1
 3371  5065  5066     1
 3372  5065  5067     1
 3373  5068  5069     1
 3374  5068  5070     1
 3375  5068  5069     1
 3376  5068  5070     1
 3377  5071  5072     1
 3378  5071  5073     1
 3379  5071  5072     1
 3380  5071  5073     1
 3381  5074  5075     1
 3382  5074  5076     1
 3383  5074  5075     1
 3384  5074  5076     1
 3385  5077  5078     1
 3386  5077  5079     1
 3387  5077  5078     1
 3388  5077  5079     1
 3389  5080  5081     1
 3390  5080  5082     1
 3391  5080  5081     1
 3392  5080  5082     1
 3393  5083  5084     1
 3394  5083  5085     1
 3395  5083  5084     1
 3396  5083  5085     1
 3397  5086  5087     1
 3398  5086  5088     1
 3399  5086  5087     1
 3400  5086  5088     1
 3401  5089  5090     1
 3402  5089  5091     1
 3403  5089  5090     1
 3404  5089  5091     1
 3405  5092  5093     1
 3406  5092  5094     1
 3407  5092  5093     1
 3408  5092  5094     1
 3409  5095  5096     1
 3410  5095  5097     1
 3411  5095  5096     1
 3412  5095  5097     1
 3413  5098  5099     1
 3414  5098  5100     1
 3415  5098  5099     1
 3416  5098  5100     1
 3417  5101  5102     1
 3418  5101  5103     1
 3419  5101  5102     1
 3420  5101  5103     1
 3421  5104  5105     1
 3422  5104  5106     1
 3423  5104  5105     1
 3424  5104  5106     1
 3425  5107  5108     1
 3426  5107  5109     1
 3427  5107  5108     1
 3428  5107  5109     1
 3429  5110  5111     1
 3430  5110  5112     1
 3431  5110  5111     1
 3432  5110  5112     1
 3433  5113  5114     1
 3434  5113  5115     1
 3435  5113  5114     1
 3436  5113  5115     1
 3437  5116  5117     1
 3438  5116  5118     1
 3439  5116  5117     1
 3440  5116  5118     1
 3441  5119  5120     1
 3442  5119  5121     1
 3443  5119  5120     1
 3444  5119  5121     1
 3445  5122  5123     1
 3446  5122  5124     1
 3447  5122  5123     1
 3448  5122  5124     1
 3449  5125  5126     1
 3450  5125  5127     1
 3451  5125  5126     1
 3452  5125  5127     1
 3453  5128  5129     1
 3454  5128  5130     1
 3455  5128  5129     1
 3456  5128  5130     1
 3457  5131  5132     1
 3458  5131  5133     1
 3459  5131  5132     1
 3460  5131  5133     1
 3461  5134  5135     1
 3462  5134  5136     1
 3463  5134  5135     1
 3464  5134  5136     1
 3465  5137  5138     1
 3466  5137  5139     1
 3467  5137  5138     1
 3468  5137  5139     1
 3469  5140  5141     1
 3470  5140  5142     1
 3471  5140  5141     1
 3472  5140  5142     1
 3473  5143  5144     1
 3474  5143  5145     1
 3475  5143  5144     1
 3476  5143  5145     1
 3477  5146  5147     1
 3478  5146  5148     1
 3479  5146  5147     1
 3480  5146  5148     1
 3481  5149  5150     1
 3482  5149  5151     1
 3483  5149  5150     1
 3484  5149  5151     1
 3485  5152  5153     1
 3486  5152  5154     1
 3487  5152  5153     1
 3488  5152  5154     1
 3489  5155  5156     1
 3490  5155  5157     1
 3491  5155  5156     1
 3492  5155  5157     1
 3493  5158  5159     1
 3494  5158  5160     1
 3495  5158  5159     1
 3496  5158  5160     1
 3497  5161  5162     1
 3498  5161  5163     1
 3499  5161  5162     1
 3500  5161  5163     1
 3501  5164  5165     1
 3502  5164  5166     1
 3503  5164  5165     1
 3504  5164  5166     1
 3505  5167  5168     1
 3506  5167  5169     1
 3507  5167  5168     1
 3508  5167  5169     1
 3509  5170  5171     1
 3510  5170  5172     1
 3511  5170  5171     1
 3512  5170  5172     1
 3513  5173  5174     1
 3514  5173  5175     1
 3515  5173  5174     1
 3516  5173  5175     1
 3517  5176  5177     1
 3518  5176  5178     1
 3519  5176  5177     1
 3520  5176  5178     1
 3521  5179  5180     1
 3522  5179  5181     1
 3523  5179  5180     1
 3524  5179  5181     1
 3525  5182  5183     1
 3526  5182  5184     1
 3527  5182  5183     1
 3528  5182  5184     1
 3529  5185  5186     1
 3530  5185  5187     1
 3531  5185  5186     1
 3532  5185  5187     1
 3533  5188  5189     1
 3534  5188  5190     1
 3535  5188  5189     1
 3536  5188  5190     1
 3537  5191  5192     1
 3538  5191  5193     1
 3539  5191  5192     1
 3540  5191  5193     1
 3541  5194  5195     1
 3542  5194  5196     1
 3543  5194  5195     1
 3544  5194  5196     1
 3545  5197  5198     1
 3546  5197  5199     1
 3547  5197  5198     1
 3548  5197  5199     1
 3549  5200  5201     1
 3550  5200  5202     1
 3551  5200  5201     1
 3552  5200  5202     1
 3553  5203  5204     1
 3554  5203  5205     1
 3555  5203  5204     1
 3556  5203  5205     1
 3557  5206  5207     1
 3558  5206  5208     1
 3559  5206  5207     1
 3560  5206  5208     1
 3561  5209  5210     1
 3562  5209  5211     1
 3563  5209  5210     1
 3564  5209  5211     1
 3565  5212  5213     1
 3566  5212  5214     1
 3567  5212  5213     1
 3568  5212  5214     1
 3569  5215  5216     1
 3570  5215  5217     1
 3571  5215  5216     1
 3572  5215  5217     1
 3573  5218  5219     1
 3574  5218  5220     1
 3575  5218  5219     1
 3576  5218  5220     1
 3577  5221  5222     1
 3578  5221  5223     1
 3579  5221  5222     1
 3580  5221  5223     1
 3581  5224  5225     1
 3582  5224  5226     1
 3583  5224  5225     1
 3584  5224  5226     1
 3585  5227  5228     1
 3586  5227  5229     1
 3587  5227  5228     1
 3588  5227  5229     1
 3589  5230  5231     1
 3590  5230  5232     1
 3591  5230  5231     1
 3592  5230  5232     1
 3593  5233  5234     1
 3594  5233  5235     1
 3595  5233  5234     1
 3596  5233  5235     1
 3597  5236  5237     1
 3598  5236  5238     1
 3599  5236  5237     1
 3600  5236  5238     1
 3601  5239  5240     1
 3602  5239  5241     1
 3603  5239  5240     1
 3604  5239  5241     1
 3605  5242  5243     1
 3606  5242  5244     1
 3607  5242  5243     1
 3608  5242  5244     1
 3609  5245  5246     1
 3610  5245  5247     1
 3611  5245  5246     1
 3612  5245  5247     1
 3613  5248  5249     1
 3614  5248  5250     1
 3615  5248  5249     1
 3616  5248  5250     1
 3617  5251  5252     1
 3618  5251  5253     1
 3619  5251  5252     1
 3620  5251  5253     1
 3621  5254  5255     1
 3622  5254  5256     1
 3623  5254  5255     1
 3624  5254  5256     1
 3625  5257  5258     1
 3626  5257  5259     1
 3627  5257  5258     1
 3628  5257  5259     1
 3629  5260  5261     1
 3630  5260  5262     1
 3631  5260  5261     1
 3632  5260  5262     1
 3633  5263  5264     1
 3634  5263  5265     1
 3635  5263  5264     1
 3636  5263  5265     1
 3637  5266  5267     1
 3638  5266  5268     1
 3639  5266  5267     1
 3640  5266  5268     1
 3641  5269  5270     1
 3642  5269  5271     1
 3643  5269  5270     1
 3644  5269  5271     1
 3645  5272  5273     1
 3646  5272  5274     1
 3647  5272  5273     1
 3648  5272  5274     1
 3649  5275  5276     1
 3650  5275  5277     1
 3651  5275  5276     1
 3652  5275  5277     1
 3653  5278  5279     1
 3654  5278  5280     1
 3655  5278  5279     1
 3656  5278  5280     1
 3657  5281  5282     1
 3658  5281  5283     1
 3659  5281  5282     1
 3660  5281  5283     1
 3661  5284  5285     1
 3662  5284  5286     1
 3663  5284  5285     1
 3664  5284  5286     1
 3665  5287  5288     1
 3666  5287  5289     1
 3667  5287  5288     1
 3668  5287  5289     1
 3669  5290  5291     1
 3670  5290  5292     1
 3671  5290  5291     1
 3672  5290  5292     1
 3673  5293  5294     1
 3674  5293  5295     1
 3675  5293  5294     1
 3676  5293  5295     1
 3677  5296  5297     1
 3678  5296  5298     1
 3679  5296  5297     1
 3680  5296  5298     1
 3681  5299  5300     1
 3682  5299  5301     1
 3683  5299  5300     1
 3684  5299  5301     1
 3685  5302  5303     1
 3686  5302  5304     1
 3687  5302  5303     1
 3688  5302  5304     1
 3689  5305  5306     1
 3690  5305  5307     1
 3691  5305  5306     1
 3692  5305  5307     1
 3693  5308  5309     1
 3694  5308  5310     1
 3695  5308  5309     1
 3696  5308  5310     1
 3697  5311  5312     1
 3698  5311  5313     1
 3699  5311  5312     1
 3700  5311  5313     1
 3701  5314  5315     1
 3702  5314  5316     1
 3703  5314  5315     1
 3704  5314  5316     1
 3705  5317  5318     1
 3706  5317  5319     1
 3707  5317  5318     1
 3708  5317  5319     1
 3709  5320  5321     1
 3710  5320  5322     1
 3711  5320  5321     1
 3712  5320  5322     1
 3713  5323  5324     1
 3714  5323  5325     1
 3715  5323  5324     1
 3716  5323  5325     1
 3717  5326  5327     1
 3718  5326  5328     1
 3719  5326  5327     1
 3720  5326  5328     1
 3721  5329  5330     1
 3722  5329  5331     1
 3723  5329  5330     1
 3724  5329  5331     1
 3725  5332  5333     1
 3726  5332  5334     1
 3727  5332  5333     1
 3728  5332  5334     1
 3729  5335  5336     1
 3730  5335  5337     1
 3731  5335  5336     1
 3732  5335  5337     1
 3733  5338  5339     1
 3734  5338  5340     1
 3735  5338  5339     1
 3736  5338  5340     1
 3737  5341  5342     1
 3738  5341  5343     1
 3739  5341  5342     1
 3740  5341  5343     1
 3741  5344  5345     1
 3742  5344  5346     1
 3743  5344  5345     1
 3744  5344  5346     1
 3745  5347  5348     1
 3746  5347  5349     1
 3747  5347  5348     1
 3748  5347  5349     1
 3749  5350  5351     1
 3750  5350  5352     1
 3751  5350  5351     1
 3752  5350  5352     1
 3753  5353  5354     1
 3754  5353  5355     1
 3755  5353  5354     1
 3756  5353  5355     1
 3757  5356  5357     1
 3758  5356  5358     1
 3759  5356  5357     1
 3760  5356  5358     1
 3761  5359  5360     1
 3762  5359  5361     1
 3763  5359  5360     1
 3764  5359  5361     1
 3765  5362  5363     1
 3766  5362  5364     1
 3767  5362  5363     1
 3768  5362  5364     1
 3769  5365  5366     1
 3770  5365  5367     1
 3771  5365  5366     1
 3772  5365  5367     1
 3773  5368  5369     1
 3774  5368  5370     1
 3775  5368  5369     1
 3776  5368  5370     1
 3777  5371  5372     1
 3778  5371  5373     1
 3779  5371  5372     1
 3780  5371  5373     1
 3781  5374  5375     1
 3782  5374  5376     1
 3783  5374  5375     1
 3784  5374  5376     1
 3785  5377  5378     1
 3786  5377  5379     1
 3787  5377  5378     1
 3788  5377  5379     1
 3789  5380  5381     1
 3790  5380  5382     1
 3791  5380  5381     1
 3792  5380  5382     1
 3793  5383  5384     1
 3794  5383  5385     1
 3795  5383  5384     1
 3796  5383  5385     1
 3797  5386  5387     1
 3798  5386  5388     1
 3799  5386  5387     1
 3800  5386  5388     1
 3801  5389  5390     1
 3802  5389  5391     1
 3803  5389  5390     1
 3804  5389  5391     1
 3805  5392  5393     1
 3806  5392  5394     1
 3807  5392  5393     1
 3808  5392  5394     1
 3809  5395  5396     1
 3810  5395  5397     1
 3811  5395  5396     1
 3812  5395  5397     1
 3813  5398  5399     1
 3814  5398  5400     1
 3815  5398  5399     1
 3816  5398  5400     1
 3817  5401  5402     1
 3818  5401  5403     1
 3819  5401  5402     1
 3820  5401  5403     1
 3821  5404  5405     1
 3822  5404  5406     1
 3823  5404  5405     1
 3824  5404  5406     1
 3825  5407  5408     1
 3826  5407  5409     1
 3827  5407  5408     1
 3828  5407  5409     1
 3829  5410  5411     1
 3830  5410  5412     1
 3831  5410  5411     1
 3832  5410  5412     1
 3833  5413  5414     1
 3834  5413  5415     1
 3835  5413  5414     1
 3836  5413  5415     1
 3837  5416  5417     1
 3838  5416  5418     1
 3839  5416  5417     1
 3840  5416  5418     1
 3841  5419  5420     1
 3842  5419  5421     1
 3843  5419  5420     1
 3844  5419  5421     1
 3845  5422  5423     1
 3846  5422  5424     1
 3847  5422  5423     1
 3848  5422  5424     1
 3849  5425  5426     1
 3850  5425  5427     1
 3851  5425  5426     1
 3852  5425  5427     1
 3853  5428  5429     1
 3854  5428  5430     1
 3855  5428  5429     1
 3856  5428  5430     1
 3857  5431  5432     1
 3858  5431  5433     1
 3859  5431  5432     1
 3860  5431  5433     1
 3861  5434  5435     1
 3862  5434  5436     1
 3863  5434  5435     1
 3864  5434  5436     1
 3865  5437  5438     1
 3866  5437  5439     1
 3867  5437  5438     1
 3868  5437  5439     1
 3869  5440  5441     1
 3870  5440  5442     1
 3871  5440  5441     1
 3872  5440  5442     1
 3873  5443  5444     1
 3874  5443  5445     1
 3875  5443  5444     1
 3876  5443  5445     1
 3877  5446  5447     1
 3878  5446  5448     1
 3879  5446  5447     1
 3880  5446  5448     1
 3881  5449  5450     1
 3882  5449  5451     1
 3883  5449  5450     1
 3884  5449  5451     1
 3885  5452  5453     1
 3886  5452  5454     1
 3887  5452  5453     1
 3888  5452  5454     1
 3889  5455  5456     1
 3890  5455  5457     1
 3891  5455  5456     1
 3892  5455  5457     1
 3893  5458  5459     1
 3894  5458  5460     1
 3895  5458  5459     1
 3896  5458  5460     1
 3897  5461  5462     1
 3898  5461  5463     1
 3899  5461  5462     1
 3900  5461  5463     1
 3901  5464  5465     1
 3902  5464  5466     1
 3903  5464  5465     1
 3904  5464  5466     1
 3905  5467  5468     1
 3906  5467  5469     1
 3907  5467  5468     1
 3908  5467  5469     1
 3909  5470  5471     1
 3910  5470  5472     1
 3911  5470  5471     1
 3912  5470  5472     1
 3913  5473  5474     1
 3914  5473  5475     1
 3915  5473  5474     1
 3916  5473  5475     1
 3917  5476  5477     1
 3918  5476  5478     1
 3919  5476  5477     1
 3920  5476  5478     1
 3921  5479  5480     1
 3922  5479  5481     1
 3923  5479  5480     1
 3924  5479  5481     1
 3925  5482  5483     1
 3926  5482  5484     1
 3927  5482  5483     1
 3928  5482  5484     1
 3929  5485  5486     1
 3930  5485  5487     1
 3931  5485  5486     1
 3932  5485  5487     1
 3933  5488  5489     1
 3934  5488  5490     1
 3935  5488  5489     1
 3936  5488  5490     1
 3937  5491  5492     1
 3938  5491  5493     1
 3939  5491  5492     1
 3940  5491  5493     1
 3941  5494  5495     1
 3942  5494  5496     1
 3943  5494  5495     1
 3944  5494  5496     1
 3945  5497  5498     1
 3946  5497  5499     1
 3947  5497  5498     1
 3948  5497  5499     1
 3949  5500  5501     1
 3950  5500  5502     1
 3951  5500  5501     1
 3952  5500  5502     1
 3953  5503  5504     1
 3954  5503  5505     1
 3955  5503  5504     1
 3956  5503  5505     1
 3957  5506  5507     1
 3958  5506  5508     1
 3959  5506  5507     1
 3960  5506  5508     1
 3961  5509  5510     1
 3962  5509  5511     1
 3963  5509  5510     1
 3964  5509  5511     1
 3965  5512  5513     1
 3966  5512  5514     1
 3967  5512  5513     1
 3968  5512  5514     1
 3969  5515  5516     1
 3970  5515  5517     1
 3971  5515  5516     1
 3972  5515  5517     1
 3973  5518  5519     1
 3974  5518  5520     1
 3975  5518  5519     1
 3976  5518  5520     1
 3977  5521  5522     1
 3978  5521  5523     1
 3979  5521  5522     1
 3980  5521  5523     1
 3981  5524  5525     1
 3982  5524  5526     1
 3983  5524  5525     1
 3984  5524  5526     1
 3985  5527  5528     1
 3986  5527  5529     1
 3987  5527  5528     1
 3988  5527  5529     1
 3989  5530  5531     1
 3990  5530  5532     1
 3991  5530  5531     1
 3992  5530  5532     1
 3993  5533  5534     1
 3994  5533  5535     1
 3995  5533  5534     1
 3996  5533  5535     1
 3997  5536  5537     1
 3998  5536  5538     1
 3999  5536  5537     1
 4000  5536  5538     1
 4001  5539  5540     1
 4002  5539  5541     1
 4003  5539  5540     1
 4004  5539  5541     1
 4005  5542  5543     1
 4006  5542  5544     1
 4007  5542  5543     1
 4008  5542  5544     1
 4009  5545  5546     1
 4010  5545  5547     1
 4011  5545  5546     1
 4012  5545  5547     1
 4013  5548  5549     1
 4014  5548  5550     1
 4015  5548  5549     1
 4016  5548  5550     1
 4017  5551  5552     1
 4018  5551  5553     1
 4019  5551  5552     1
 4020  5551  5553     1
 4021  5554  5555     1
 4022  5554  5556     1
 4023  5554  5555     1
 4024  5554  5556     1
 4025  5557  5558     1
 4026  5557  5559     1
 4027  5557  5558     1
 4028  5557  5559     1
 4029  5560  5561     1
 4030  5560  5562     1
 4031  5560  5561     1
 4032  5560  5562     1
 4033  5563  5564     1
 4034  5563  5565     1
 4035  5563  5564     1
 4036  5563  5565     1
 4037  5566  5567     1
 4038  5566  5568     1
 4039  5566  5567     1
 4040  5566  5568     1
 4041  5569  5570     1
 4042  5569  5571     1
 4043  5569  5570     1
 4044  5569  5571     1
 4045  5572  5573     1
 4046  5572  5574     1
 4047  5572  5573     1
 4048  5572  5574     1
 4049  5575  5576     1
 4050  5575  5577     1
 4051  5575  5576     1
 4052  5575  5577     1
 4053  5578  5579     1
 4054  5578  5580     1
 4055  5578  5579     1
 4056  5578  5580     1
 4057  5581  5582     1
 4058  5581  5583     1
 4059  5581  5582     1
 4060  5581  5583     1
 4061  5584  5585     1
 4062  5584  5586     1
 4063  5584  5585     1
 4064  5584  5586     1
 4065  5587  5588     1
 4066  5587  5589     1
 4067  5587  5588     1
 4068  5587  5589     1
 4069  5590  5591     1
 4070  5590  5592     1
 4071  5590  5591     1
 4072  5590  5592     1
 4073  5593  5594     1
 4074  5593  5595     1
 4075  5593  5594     1
 4076  5593  5595     1
 4077  5596  5597     1
 4078  5596  5598     1
 4079  5596  5597     1
 4080  5596  5598     1
 4081  5599  5600     1
 4082  5599  5601     1
 4083  5599  5600     1
 4084  5599  5601     1
 4085  5602  5603     1
 4086  5602  5604     1
 4087  5602  5603     1
 4088  5602  5604     1
 4089  5605  5606     1
 4090  5605  5607     1
 4091  5605  5606     1
 4092  5605  5607     1
 4093  5608  5609     1
 4094  5608  5610     1
 4095  5608  5609     1
 4096  5608  5610     1
 4097  5611  5612     1
 4098  5611  5613     1
 4099  5611  5612     1
 4100  5611  5613     1
 4101  5614  5615     1
 4102  5614  5616     1
 4103  5614  5615     1
 4104  5614  5616     1
 4105  5617  5618     1
 4106  5617  5619     1
 4107  5617  5618     1
 4108  5617  5619     1
 4109  5620  5621     1
 4110  5620  5622     1
 4111  5620  5621     1
 4112  5620  5622     1
 4113  5623  5624     1
 4114  5623  5625     1
 4115  5623  5624     1
 4116  5623  5625     1
 4117  5626  5627     1
 4118  5626  5628     1
 4119  5626  5627     1
 4120  5626  5628     1
 4121  5629  5630     1
 4122  5629  5631     1
 4123  5629  5630     1
 4124  5629  5631     1
 4125  5632  5633     1
 4126  5632  5634     1
 4127  5632  5633     1
 4128  5632  5634     1
 4129  5635  5636     1
 4130  5635  5637     1
 4131  5635  5636     1
 4132  5635  5637     1
 4133  5638  5639     1
 4134  5638  5640     1
 4135  5638  5639     1
 4136  5638  5640     1
 4137  5641  5642     1
 4138  5641  5643     1
 4139  5641  5642     1
 4140  5641  5643     1
 4141  5644  5645     1
 4142  5644  5646     1
 4143  5644  5645     1
 4144  5644  5646     1
 4145  5647  5648     1
 4146  5647  5649     1
 4147  5647  5648     1
 4148  5647  5649     1
 4149  5650  5651     1
 4150  5650  5652     1
 4151  5650  5651     1
 4152  5650  5652     1
 4153  5653  5654     1
 4154  5653  5655     1
 4155  5653  5654     1
 4156  5653  5655     1
 4157  5656  5657     1
 4158  5656  5658     1
 4159  5656  5657     1
 4160  5656  5658     1
 4161  5659  5660     1
 4162  5659  5661     1
 4163  5659  5660     1
 4164  5659  5661     1
 4165  5662  5663     1
 4166  5662  5664     1
 4167  5662  5663     1
 4168  5662  5664     1
 4169  5665  5666     1
 4170  5665  5667     1
 4171  5665  5666     1
 4172  5665  5667     1
 4173  5668  5669     1
 4174  5668  5670     1
 4175  5668  5669     1
 4176  5668  5670     1
 4177  5671  5672     1
 4178  5671  5673     1
 4179  5671  5672     1
 4180  5671  5673     1
 4181  5674  5675     1
 4182  5674  5676     1
 4183  5674  5675     1
 4184  5674  5676     1
 4185  5677  5678     1
 4186  5677  5679     1
 4187  5677  5678     1
 4188  5677  5679     1
 4189  5680  5681     1
 4190  5680  5682     1
 4191  5680  5681     1
 4192  5680  5682     1
 4193  5683  5684     1
 4194  5683  5685     1
 4195  5683  5684     1
 4196  5683  5685     1
 4197  5686  5687     1
 4198  5686  5688     1
 4199  5686  5687     1
 4200  5686  5688     1
 4201  5689  5690     1
 4202  5689  5691     1
 4203  5689  5690     1
 4204  5689  5691     1
 4205  5692  5693     1
 4206  5692  5694     1
 4207  5692  5693     1
 4208  5692  5694     1
 4209  5695  5696     1
 4210  5695  5697     1
 4211  5695  5696     1
 4212  5695  5697     1
 4213  5698  5699     1
 4214  5698  5700     1
 4215  5698  5699     1
 4216  5698  5700     1
 4217  5701  5702     1
 4218  5701  5703     1
 4219  5701  5702     1
 4220  5701  5703     1
 4221  5704  5705     1
 4222  5704  5706     1
 4223  5704  5705     1
 4224  5704  5706     1
 4225  5707  5708     1
 4226  5707  5709     1
 4227  5707  5708     1
 4228  5707  5709     1
 4229  5710  5711     1
 4230  5710  5712     1
 4231  5710  5711     1
 4232  5710  5712     1
 4233  5713  5714     1
 4234  5713  5715     1
 4235  5713  5714     1
 4236  5713  5715     1
 4237  5716  5717     1
 4238  5716  5718     1
 4239  5716  5717     1
 4240  5716  5718     1
 4241  5719  5720     1
 4242  5719  5721     1
 4243  5719  5720     1
 4244  5719  5721     1
 4245  5722  5723     1
 4246  5722  5724     1
 4247  5722  5723     1
 4248  5722  5724     1
 4249  5725  5726     1
 4250  5725  5727     1
 4251  5725  5726     1
 4252  5725  5727     1
 4253  5728  5729     1
 4254  5728  5730     1
 4255  5728  5729     1
 4256  5728  5730     1
 4257  5731  5732     1
 4258  5731  5733     1
 4259  5731  5732     1
 4260  5731  5733     1
 4261  5734  5735     1
 4262  5734  5736     1
 4263  5734  5735     1
 4264  5734  5736     1
 4265  5737  5738     1
 4266  5737  5739     1
 4267  5737  5738     1
 4268  5737  5739     1
 4269  5740  5741     1
 4270  5740  5742     1
 4271  5740  5741     1
 4272  5740  5742     1
 4273  5743  5744     1
 4274  5743  5745     1
 4275  5743  5744     1
 4276  5743  5745     1
 4277  5746  5747     1
 4278  5746  5748     1
 4279  5746  5747     1
 4280  5746  5748     1
 4281  5749  5750     1
 4282  5749  5751     1
 4283  5749  5750     1
 4284  5749  5751     1
 4285  5752  5753     1
 4286  5752  5754     1
 4287  5752  5753     1
 4288  5752  5754     1
 4289  5755  5756     1
 4290  5755  5757     1
 4291  5755  5756     1
 4292  5755  5757     1
 4293  5758  5759     1
 4294  5758  5760     1
 4295  5758  5759     1
 4296  5758  5760     1
 4297  5761  5762     1
 4298  5761  5763     1
 4299  5761  5762     1
 4300  5761  5763     1
 4301  5764  5765     1
 4302  5764  5766     1
 4303  5764  5765     1
 4304  5764  5766     1
 4305  5767  5768     1
 4306  5767  5769     1
 4307  5767  5768     1
 4308  5767  5769     1
 4309  5770  5771     1
 4310  5770  5772     1
 4311  5770  5771     1
 4312  5770  5772     1
 4313  5773  5774     1
 4314  5773  5775     1
 4315  5773  5774     1
 4316  5773  5775     1
 4317  5776  5777     1
 4318  5776  5778     1
 4319  5776  5777     1
 4320  5776  5778     1
 4321  5779  5780     1
 4322  5779  5781     1
 4323  5779  5780     1
 4324  5779  5781     1
 4325  5782  5783     1
 4326  5782  5784     1
 4327  5782  5783     1
 4328  5782  5784     1
 4329  5785  5786     1
 4330  5785  5787     1
 4331  5785  5786     1
 4332  5785  5787     1
 4333  5788  5789     1
 4334  5788  5790     1
 4335  5788  5789     1
 4336  5788  5790     1
 4337  5791  5792     1
 4338  5791  5793     1
 4339  5791  5792     1
 4340  5791  5793     1
 4341  5794  5795     1
 4342  5794  5796     1
 4343  5794  5795     1
 4344  5794  5796     1
 4345  5797  5798     1
 4346  5797  5799     1
 4347  5797  5798     1
 4348  5797  5799     1
 4349  5800  5801     1
 4350  5800  5802     1
 4351  5800  5801     1
 4352  5800  5802     1
 4353  5803  5804     1
 4354  5803  5805     1
 4355  5803  5804     1
 4356  5803  5805     1
 4357  5806  5807     1
 4358  5806  5808     1
 4359  5806  5807     1
 4360  5806  5808     1
 4361  5809  5810     1
 4362  5809  5811     1
 4363  5809  5810     1
 4364  5809  5811     1
 4365  5812  5813     1
 4366  5812  5814     1
 4367  5812  5813     1
 4368  5812  5814     1
 4369  5815  5816     1
 4370  5815  5817     1
 4371  5815  5816     1
 4372  5815  5817     1
 4373  5818  5819     1
 4374  5818  5820     1
 4375  5818  5819     1
 4376  5818  5820     1
 4377  5821  5822     1
 4378  5821  5823     1
 4379  5821  5822     1
 4380  5821  5823     1
 4381  5824  5825     1
 4382  5824  5826     1
 4383  5824  5825     1
 4384  5824  5826     1
 4385  5827  5828     1
 4386  5827  5829     1
 4387  5827  5828     1
 4388  5827  5829     1
 4389  5830  5831     1
 4390  5830  5832     1
 4391  5830  5831     1
 4392  5830  5832     1
 4393  5833  5834     1
 4394  5833  5835     1
 4395  5833  5834     1
 4396  5833  5835     1
 4397  5836  5837     1
 4398  5836  5838     1
 4399  5836  5837     1
 4400  5836  5838     1
 4401  5839  5840     1
 4402  5839  5841     1
 4403  5839  5840     1
 4404  5839  5841     1
 4405  5842  5843     1
 4406  5842  5844     1
 4407  5842  5843     1
 4408  5842  5844     1
 4409  5845  5846     1
 4410  5845  5847     1
 4411  5845  5846     1
 4412  5845  5847     1
 4413  5848  5849     1
 4414  5848  5850     1
 4415  5848  5849     1
 4416  5848  5850     1
 4417  5851  5852     1
 4418  5851  5853     1
 4419  5851  5852     1
 4420  5851  5853     1
 4421  5854  5855     1
 4422  5854  5856     1
 4423  5854  5855     1
 4424  5854  5856     1
 4425  5857  5858     1
 4426  5857  5859     1
 4427  5857  5858     1
 4428  5857  5859     1
 4429  5860  5861     1
 4430  5860  5862     1
 4431  5860  5861     1
 4432  5860  5862     1
 4433  5863  5864     1
 4434  5863  5865     1
 4435  5863  5864     1
 4436  5863  5865     1
 4437  5866  5867     1
 4438  5866  5868     1
 4439  5866  5867     1
 4440  5866  5868     1
 4441  5869  5870     1
 4442  5869  5871     1
 4443  5869  5870     1
 4444  5869  5871     1
 4445  5872  5873     1
 4446  5872  5874     1
 4447  5872  5873     1
 4448  5872  5874     1
 4449  5875  5876     1
 4450  5875  5877     1
 4451  5875  5876     1
 4452  5875  5877     1
 4453  5878  5879     1
 4454  5878  5880     1
 4455  5878  5879     1
 4456  5878  5880     1
 4457  5881  5882     1
 4458  5881  5883     1
 4459  5881  5882     1
 4460  5881  5883     1
 4461  5884  5885     1
 4462  5884  5886     1
 4463  5884  5885     1
 4464  5884  5886     1
 4465  5887  5888     1
 4466  5887  5889     1
 4467  5887  5888     1
 4468  5887  5889     1
 4469  5890  5891     1
 4470  5890  5892     1
 4471  5890  5891     1
 4472  5890  5892     1
 4473  5893  5894     1
 4474  5893  5895     1
 4475  5893  5894     1
 4476  5893  5895     1
 4477  5896  5897     1
 4478  5896  5898     1
 4479  5896  5897     1
 4480  5896  5898     1
 4481  5899  5900     1
 4482  5899  5901     1
 4483  5899  5900     1
 4484  5899  5901     1
 4485  5902  5903     1
 4486  5902  5904     1
 4487  5902  5903     1
 4488  5902  5904     1
 4489  5905  5906     1
 4490  5905  5907     1
 4491  5905  5906     1
 4492  5905  5907     1
 4493  5908  5909     1
 4494  5908  5910     1
 4495  5908  5909     1
 4496  5908  5910     1
 4497  5911  5912     1
 4498  5911  5913     1
 4499  5911  5912     1
 4500  5911  5913     1
 4501  5914  5915     1
 4502  5914  5916     1
 4503  5914  5915     1
 4504  5914  5916     1
 4505  5917  5918     1
 4506  5917  5919     1
 4507  5917  5918     1
 4508  5917  5919     1
 4509  5920  5921     1
 4510  5920  5922     1
 4511  5920  5921     1
 4512  5920  5922     1
 4513  5923  5924     1
 4514  5923  5925     1
 4515  5923  5924     1
 4516  5923  5925     1
 4517  5926  5927     1
 4518  5926  5928     1
 4519  5926  5927     1
 4520  5926  5928     1
 4521  5929  5930     1
 4522  5929  5931     1
 4523  5929  5930     1
 4524  5929  5931     1
 4525  5932  5933     1
 4526  5932  5934     1
 4527  5932  5933     1
 4528  5932  5934     1
 4529  5935  5936     1
 4530  5935  5937     1
 4531  5935  5936     1
 4532  5935  5937     1
 4533  5938  5939     1
 4534  5938  5940     1
 4535  5938  5939     1
 4536  5938  5940     1
 4537  5941  5942     1
 4538  5941  5943     1
 4539  5941  5942     1
 4540  5941  5943     1
 4541  5944  5945     1
 4542  5944  5946     1
 4543  5944  5945     1
 4544  5944  5946     1
 4545  5947  5948     1
 4546  5947  5949     1
 4547  5947  5948     1
 4548  5947  5949     1
 4549  5950  5951     1
 4550  5950  5952     1
 4551  5950  5951     1
 4552  5950  5952     1
 4553  5953  5954     1
 4554  5953  5955     1
 4555  5953  5954     1
 4556  5953  5955     1
 4557  5956  5957     1
 4558  5956  5958     1
 4559  5956  5957     1
 4560  5956  5958     1
 4561  5959  5960     1
 4562  5959  5961     1
 4563  5959  5960     1
 4564  5959  5961     1
 4565  5962  5963     1
 4566  5962  5964     1
 4567  5962  5963     1
 4568  5962  5964     1
 4569  5965  5966     1
 4570  5965  5967     1
 4571  5965  5966     1
 4572  5965  5967     1
 4573  5968  5969     1
 4574  5968  5970     1
 4575  5968  5969     1
 4576  5968  5970     1
 4577  5971  5972     1
 4578  5971  5973     1
 4579  5971  5972     1
 4580  5971  5973     1
 4581  5974  5975     1
 4582  5974  5976     1
 4583  5974  5975     1
 4584  5974  5976     1
 4585  5977  5978     1
 4586  5977  5979     1
 4587  5977  5978     1
 4588  5977  5979     1
 4589  5980  5981     1
 4590  5980  5982     1
 4591  5980  5981     1
 4592  5980  5982     1
 4593  5983  5984     1
 4594  5983  5985     1
 4595  5983  5984     1
 4596  5983  5985     1
 4597  5986  5987     1
 4598  5986  5988     1
 4599  5986  5987     1
 4600  5986  5988     1
 4601  5989  5990     1
 4602  5989  5991     1
 4603  5989  5990     1
 4604  5989  5991     1
 4605  5992  5993     1
 4606  5992  5994     1
 4607  5992  5993     1
 4608  5992  5994     1
 4609  5995  5996     1
 4610  5995  5997     1
 4611  5995  5996     1
 4612  5995  5997     1
 4613  5998  5999     1
 4614  5998  6000     1
 4615  5998  5999     1
 4616  5998  6000     1
 4617  6001  6002     1
 4618  6001  6003     1
 4619  6001  6002     1
 4620  6001  6003     1
 4621  6004  6005     1
 4622  6004  6006     1
 4623  6004  6005     1
 4624  6004  6006     1
 4625  6007  6008     1
 4626  6007  6009     1
 4627  6007  6008     1
 4628  6007  6009     1
 4629  6010  6011     1
 4630  6010  6012     1
 4631  6010  6011     1
 4632  6010  6012     1
 4633  6013  6014     1
 4634  6013  6015     1
 4635  6013  6014     1
 4636  6013  6015     1
 4637  6016  6017     1
 4638  6016  6018     1
 4639  6016  6017     1
 4640  6016  6018     1
 4641  6019  6020     1
 4642  6019  6021     1
 4643  6019  6020     1
 4644  6019  6021     1
 4645  6022  6023     1
 4646  6022  6024     1
 4647  6022  6023     1
 4648  6022  6024     1
 4649  6025  6026     1
 4650  6025  6027     1
 4651  6025  6026     1
 4652  6025  6027     1
 4653  6028  6029     1
 4654  6028  6030     1
 4655  6028  6029     1
 4656  6028  6030     1
 4657  6031  6032     1
 4658  6031  6033     1
 4659  6031  6032     1
 4660  6031  6033     1
 4661  6034  6035     1
 4662  6034  6036     1
 4663  6034  6035     1
 4664  6034  6036     1
 4665  6037  6038     1
 4666  6037  6039     1
 4667  6037  6038     1
 4668  6037  6039     1
 4669  6040  6041     1
 4670  6040  6042     1
 4671  6040  6041     1
 4672  6040  6042     1
 4673  6043  6044     1
 4674  6043  6045     1
 4675  6043  6044     1
 4676  6043  6045     1
 4677  6046  6047     1
 4678  6046  6048     1
 4679  6046  6047     1
 4680  6046  6048     1
 4681  6049  6050     1
 4682  6049  6051     1
 4683  6049  6050     1
 4684  6049  6051     1
 4685  6052  6053     1
 4686  6052  6054     1
 4687  6052  6053     1
 4688  6052  6054     1
 4689  6055  6056     1
 4690  6055  6057     1
 4691  6055  6056     1
 4692  6055  6057     1
 4693  6058  6059     1
 4694  6058  6060     1
 4695  6058  6059     1
 4696  6058  6060     1
 4697  6061  6062     1
 4698  6061  6063     1
 4699  6061  6062     1
 4700  6061  6063     1
 4701  6064  6065     1
 4702  6064  6066     1
 4703  6064  6065     1
 4704  6064  6066     1
 4705  6067  6068     1
 4706  6067  6069     1
 4707  6067  6068     1
 4708  6067  6069     1
 4709  6070  6071     1
 4710  6070  6072     1
 4711  6070  6071     1
 4712  6070  6072     1
 4713  6073  6074     1
 4714  6073  6075     1
 4715  6073  6074     1
 4716  6073  6075     1
 4717  6076  6077     1
 4718  6076  6078     1
 4719  6076  6077     1
 4720  6076  6078     1
 4721  6079  6080     1
 4722  6079  6081     1
 4723  6079  6080     1
 4724  6079  6081     1
 4725  6082  6083     1
 4726  6082  6084     1
 4727  6082  6083     1
 4728  6082  6084     1
 4729  6085  6086     1
 4730  6085  6087     1
 4731  6085  6086     1
 4732  6085  6087     1
 4733  6088  6089     1
 4734  6088  6090     1
 4735  6088  6089     1
 4736  6088  6090     1
 4737  6091  6092     1
 4738  6091  6093     1
 4739  6091  6092     1
 4740  6091  6093     1
 4741  6094  6095     1
 4742  6094  6096     1
 4743  6094  6095     1
 4744  6094  6096     1
 4745  6097  6098     1
 4746  6097  6099     1
 4747  6097  6098     1
 4748  6097  6099     1
 4749  6100  6101     1
 4750  6100  6102     1
 4751  6100  6101     1
 4752  6100  6102     1
 4753  6103  6104     1
 4754  6103  6105     1
 4755  6103  6104     1
 4756  6103  6105     1
 4757  6106  6107     1
 4758  6106  6108     1
 4759  6106  6107     1
 4760  6106  6108     1
 4761  6109  6110     1
 4762  6109  6111     1
 4763  6109  6110     1
 4764  6109  6111     1
 4765  6112  6113     1
 4766  6112  6114     1
 4767  6112  6113     1
 4768  6112  6114     1
 4769  6115  6116     1
 4770  6115  6117     1
 4771  6115  6116     1
 4772  6115  6117     1
 4773  6118  6119     1
 4774  6118  6120     1
 4775  6118  6119     1
 4776  6118  6120     1
 4777  6121  6122     1
 4778  6121  6123     1
 4779  6121  6122     1
 4780  6121  6123     1
 4781  6124  6125     1
 4782  6124  6126     1
 4783  6124  6125     1
 4784  6124  6126     1
 4785  6127  6128     1
 4786  6127  6129     1
 4787  6127  6128     1
 4788  6127  6129     1
 4789  6130  6131     1
 4790  6130  6132     1
 4791  6130  6131     1
 4792  6130  6132     1
 4793  6133  6134     1
 4794  6133  6135     1
 4795  6133  6134     1
 4796  6133  6135     1
 4797  6136  6137     1
 4798  6136  6138     1
 4799  6136  6137     1
 4800  6136  6138     1
 4801  6139  6140     1
 4802  6139  6141     1
 4803  6139  6140     1
 4804  6139  6141     1
 4805  6142  6143     1
 4806  6142  6144     1
 4807  6142  6143     1
 4808  6142  6144     1
 4809  6145  6146     1
 4810  6145  6147     1
 4811  6145  6146     1
 4812  6145  6147     1
 4813  6148  6149     1
 4814  6148  6150     1
 4815  6148  6149     1
 4816  6148  6150     1
 4817  6151  6152     1
 4818  6151  6153     1
 4819  6151  6152     1
 4820  6151  6153     1
 4821  6154  6155     1
 4822  6154  6156     1
 4823  6154  6155     1
 4824  6154  6156     1
 4825  6157  6158     1
 4826  6157  6159     1
 4827  6157  6158     1
 4828  6157  6159     1
 4829  6160  6161     1
 4830  6160  6162     1
 4831  6160  6161     1
 4832  6160  6162     1
 4833  6163  6164     1
 4834  6163  6165     1
 4835  6163  6164     1
 4836  6163  6165     1
 4837  6166  6167     1
 4838  6166  6168     1
 4839  6166  6167     1
 4840  6166  6168     1
 4841  6169  6170     1
 4842  6169  6171     1
 4843  6169  6170     1
 4844  6169  6171     1
 4845  6172  6173     1
 4846  6172  6174     1
 4847  6172  6173     1
 4848  6172  6174     1
 4849  6175  6176     1
 4850  6175  6177     1
 4851  6175  6176     1
 4852  6175  6177     1
 4853  6178  6179     1
 4854  6178  6180     1
 4855  6178  6179     1
 4856  6178  6180     1
 4857  6181  6182     1
 4858  6181  6183     1
 4859  6181  6182     1
 4860  6181  6183     1
 4861  6184  6185     1
 4862  6184  6186     1
 4863  6184  6185     1
 4864  6184  6186     1
 4865  6187  6188     1
 4866  6187  6189     1
 4867  6187  6188     1
 4868  6187  6189     1
 4869  6190  6191     1
 4870  6190  6192     1
 4871  6190  6191     1
 4872  6190  6192     1
 4873  6193  6194     1
 4874  6193  6195     1
 4875  6193  6194     1
 4876  6193  6195     1
 4877  6196  6197     1
 4878  6196  6198     1
 4879  6196  6197     1
 4880  6196  6198     1
 4881  6199  6200     1
 4882  6199  6201     1
 4883  6199  6200     1
 4884  6199  6201     1
 4885  6202  6203     1
 4886  6202  6204     1
 4887  6202  6203     1
 4888  6202  6204     1
 4889  6205  6206     1
 4890  6205  6207     1
 4891  6205  6206     1
 4892  6205  6207     1
 4893  6208  6209     1
 4894  6208  6210     1
 4895  6208  6209     1
 4896  6208  6210     1
 4897  6211  6212     1
 4898  6211  6213     1
 4899  6211  6212     1
 4900  6211  6213     1
 4901  6214  6215     1
 4902  6214  6216     1
 4903  6214  6215     1
 4904  6214  6216     1
 4905  6217  6218     1
 4906  6217  6219     1
 4907  6217  6218     1
 4908  6217  6219     1
 4909  6220  6221     1
 4910  6220  6222     1
 4911  6220  6221     1
 4912  6220  6222     1
 4913  6223  6224     1
 4914  6223  6225     1
 4915  6223  6224     1
 4916  6223  6225     1
 4917  6226  6227     1
 4918  6226  6228     1
 4919  6226  6227     1
 4920  6226  6228     1
 4921  6229  6230     1
 4922  6229  6231     1
 4923  6229  6230     1
 4924  6229  6231     1
 4925  6232  6233     1
 4926  6232  6234     1
 4927  6232  6233     1
 4928  6232  6234     1
 4929  6235  6236     1
 4930  6235  6237     1
 4931  6235  6236     1
 4932  6235  6237     1
 4933  6238  6239     1
 4934  6238  6240     1
 4935  6238  6239     1
 4936  6238  6240     1
 4937  6241  6242     1
 4938  6241  6243     1
 4939  6241  6242     1
 4940  6241  6243     1
 4941  6244  6245     1
 4942  6244  6246     1
 4943  6244  6245     1
 4944  6244  6246     1
 4945  6247  6248     1
 4946  6247  6249     1
 4947  6247  6248     1
 4948  6247  6249     1
 4949  6250  6251     1
 4950  6250  6252     1
 4951  6250  6251     1
 4952  6250  6252     1
 4953  6253  6254     1
 4954  6253  6255     1
 4955  6253  6254     1
 4956  6253  6255     1
 4957  6256  6257     1
 4958  6256  6258     1
 4959  6256  6257     1
 4960  6256  6258     1
 4961  6259  6260     1
 4962  6259  6261     1
 4963  6259  6260     1
 4964  6259  6261     1
 4965  6262  6263     1
 4966  6262  6264     1
 4967  6262  6263     1
 4968  6262  6264     1
 4969  6265  6266     1
 4970  6265  6267     1
 4971  6265  6266     1
 4972  6265  6267     1
 4973  6268  6269     1
 4974  6268  6270     1
 4975  6268  6269     1
 4976  6268  6270     1
 4977  6271  6272     1
 4978  6271  6273     1
 4979  6271  6272     1
 4980  6271  6273     1
 4981  6274  6275     1
 4982  6274  6276     1
 4983  6274  6275     1
 4984  6274  6276     1
 4985  6277  6278     1
 4986  6277  6279     1
 4987  6277  6278     1
 4988  6277  6279     1
 4989  6280  6281     1
 4990  6280  6282     1
 4991  6280  6281     1
 4992  6280  6282     1
 4993  6283  6284     1
 4994  6283  6285     1
 4995  6283  6284     1
 4996  6283  6285     1
 4997  6286  6287     1
 4998  6286  6288     1
 4999  6286  6287     1
 5000  6286  6288     1
 5001  6289  6290     1
 5002  6289  6291     1
 5003  6289  6290     1
 5004  6289  6291     1
 5005  6292  6293     1
 5006  6292  6294     1
 5007  6292  6293     1
 5008  6292  6294     1
 5009  6295  6296     1
 5010  6295  6297     1
 5011  6295  6296     1
 5012  6295  6297     1
 5013  6298  6299     1
 5014  6298  6300     1
 5015  6298  6299     1
 5016  6298  6300     1
 5017  6301  6302     1
 5018  6301  6303     1
 5019  6301  6302     1
 5020  6301  6303     1
 5021  6304  6305     1
 5022  6304  6306     1
 5023  6304  6305     1
 5024  6304  6306     1
 5025  6307  6308     1
 5026  6307  6309     1
 5027  6307  6308     1
 5028  6307  6309     1
 5029  6310  6311     1
 5030  6310  6312     1
 5031  6310  6311     1
 5032  6310  6312     1
 5033  6313  6314     1
 5034  6313  6315     1
 5035  6313  6314     1
 5036  6313  6315     1
 5037  6316  6317     1
 5038  6316  6318     1
 5039  6316  6317     1
 5040  6316  6318     1
 5041  6319  6320     1
 5042  6319  6321     1
 5043  6319  6320     1
 5044  6319  6321     1
 5045  6322  6323     1
 5046  6322  6324     1
 5047  6322  6323     1
 5048  6322  6324     1
 5049  6325  6326     1
 5050  6325  6327     1
 5051  6325  6326     1
 5052  6325  6327     1
 5053  6328  6329     1
 5054  6328  6330     1
 5055  6328  6329     1
 5056  6328  6330     1
 5057  6331  6332     1
 5058  6331  6333     1
 5059  6331  6332     1
 5060  6331  6333     1
 5061  6334  6335     1
 5062  6334  6336     1
 5063  6334  6335     1
 5064  6334  6336     1
 5065  6337  6338     1
 5066  6337  6339     1
 5067  6337  6338     1
 5068  6337  6339     1
 5069  6340  6341     1
 5070  6340  6342     1
 5071  6340  6341     1
 5072  6340  6342     1
 5073  6343  6344     1
 5074  6343  6345     1
 5075  6343  6344     1
 5076  6343  6345     1
 5077  6346  6347     1
 5078  6346  6348     1
 5079  6346  6347     1
 5080  6346  6348     1
 5081  6349  6350     1
 5082  6349  6351     1
 5083  6349  6350     1
 5084  6349  6351     1
 5085  6352  6353     1
 5086  6352  6354     1
 5087  6352  6353     1
 5088  6352  6354     1
 5089  6355  6356     1
 5090  6355  6357     1
 5091  6355  6356     1
 5092  6355  6357     1
 5093  6358  6359     1
 5094  6358  6360     1
 5095  6358  6359     1
 5096  6358  6360     1
 5097  6361  6362     1
 5098  6361  6363     1
 5099  6361  6362     1
 5100  6361  6363     1
 5101  6364  6365     1
 5102  6364  6366     1
 5103  6364  6365     1
 5104  6364  6366     1
 5105  6367  6368     1
 5106  6367  6369     1
 5107  6367  6368     1
 5108  6367  6369     1
 5109  6370  6371     1
 5110  6370  6372     1
 5111  6370  6371     1
 5112  6370  6372     1
 5113  6373  6374     1
 5114  6373  6375     1
 5115  6373  6374     1
 5116  6373  6375     1
 5117  6376  6377     1
 5118  6376  6378     1
 5119  6376  6377     1
 5120  6376  6378     1
 5121  6379  6380     1
 5122  6379  6381     1
 5123  6379  6380     1
 5124  6379  6381     1
 5125  6382  6383     1
 5126  6382  6384     1
 5127  6382  6383     1
 5128  6382  6384     1
 5129  6385  6386     1
 5130  6385  6387     1
 5131  6385  6386     1
 5132  6385  6387     1
 5133  6388  6389     1
 5134  6388  6390     1
 5135  6388  6389     1
 5136  6388  6390     1
 5137  6391  6392     1
 5138  6391  6393     1
 5139  6391  6392     1
 5140  6391  6393     1
 5141  6394  6395     1
 5142  6394  6396     1
 5143  6394  6395     1
 5144  6394  6396     1
 5145  6397  6398     1
 5146  6397  6399     1
 5147  6397  6398     1
 5148  6397  6399     1
 5149  6400  6401     1
 5150  6400  6402     1
 5151  6400  6401     1
 5152  6400  6402     1
 5153  6403  6404     1
 5154  6403  6405     1
 5155  6403  6404     1
 5156  6403  6405     1
 5157  6406  6407     1
 5158  6406  6408     1
 5159  6406  6407     1
 5160  6406  6408     1
 5161  6409  6410     1
 5162  6409  6411     1
 5163  6409  6410     1
 5164  6409  6411     1
 5165  6412  6413     1
 5166  6412  6414     1
 5167  6412  6413     1
 5168  6412  6414     1
 5169  6415  6416     1
 5170  6415  6417     1
 5171  6415  6416     1
 5172  6415  6417     1
 5173  6418  6419     1
 5174  6418  6420     1
 5175  6418  6419     1
 5176  6418  6420     1
 5177  6421  6422     1
 5178  6421  6423     1
 5179  6421  6422     1
 5180  6421  6423     1
 5181  6424  6425     1
 5182  6424  6426     1
 5183  6424  6425     1
 5184  6424  6426     1
 5185  6427  6428     1
 5186  6427  6429     1
 5187  6427  6428     1
 5188  6427  6429     1
 5189  6430  6431     1
 5190  6430  6432     1
 5191  6430  6431     1
 5192  6430  6432     1
 5193  6433  6434     1
 5194  6433  6435     1
 5195  6433  6434     1
 5196  6433  6435     1
 5197  6436  6437     1
 5198  6436  6438     1
 5199  6436  6437     1
 5200  6436  6438     1
 5201  6439  6440     1
 5202  6439  6441     1
 5203  6439  6440     1
 5204  6439  6441     1
 5205  6442  6443     1
 5206  6442  6444     1
 5207  6442  6443     1
 5208  6442  6444     1
 5209  6445  6446     1
 5210  6445  6447     1
 5211  6445  6446     1
 5212  6445  6447     1
 5213  6448  6449     1
 5214  6448  6450     1
 5215  6448  6449     1
 5216  6448  6450     1
 5217  6451  6452     1
 5218  6451  6453     1
 5219  6451  6452     1
 5220  6451  6453     1
 5221  6454  6455     1
 5222  6454  6456     1
 5223  6454  6455     1
 5224  6454  6456     1
 5225  6457  6458     1
 5226  6457  6459     1
 5227  6457  6458     1
 5228  6457  6459     1
 5229  6460  6461     1
 5230  6460  6462     1
 5231  6460  6461     1
 5232  6460  6462     1
 5233  6463  6464     1
 5234  6463  6465     1
 5235  6463  6464     1
 5236  6463  6465     1
 5237  6466  6467     1
 5238  6466  6468     1
 5239  6466  6467     1
 5240  6466  6468     1
 5241  6469  6470     1
 5242  6469  6471     1
 5243  6469  6470     1
 5244  6469  6471     1
 5245  6472  6473     1
 5246  6472  6474     1
 5247  6472  6473     1
 5248  6472  6474     1
 5249  6475  6476     1
 5250  6475  6477     1
 5251  6475  6476     1
 5252  6475  6477     1
 5253  6478  6479     1
 5254  6478  6480     1
 5255  6478  6479     1
 5256  6478  6480     1
 5257  6481  6482     1
 5258  6481  6483     1
 5259  6481  6482     1
 5260  6481  6483     1
 5261  6484  6485     1
 5262  6484  6486     1
 5263  6484  6485     1
 5264  6484  6486     1
 5265  6487  6488     1
 5266  6487  6489     1
 5267  6487  6488     1
 5268  6487  6489     1
 5269  6490  6491     1
 5270  6490  6492     1
 5271  6490  6491     1
 5272  6490  6492     1
 5273  6493  6494     1
 5274  6493  6495     1
 5275  6493  6494     1
 5276  6493  6495     1
 5277  6496  6497     1
 5278  6496  6498     1
 5279  6496  6497     1
 5280  6496  6498     1
 5281  6499  6500     1
 5282  6499  6501     1
 5283  6499  6500     1
 5284  6499  6501     1
 5285  6502  6503     1
 5286  6502  6504     1
 5287  6502  6503     1
 5288  6502  6504     1
 5289  6505  6506     1
 5290  6505  6507     1
 5291  6505  6506     1
 5292  6505  6507     1
 5293  6508  6509     1
 5294  6508  6510     1
 5295  6508  6509     1
 5296  6508  6510     1
 5297  6511  6512     1
 5298  6511  6513     1
 5299  6511  6512     1
 5300  6511  6513     1
 5301  6514  6515     1
 5302  6514  6516     1
 5303  6514  6515     1
 5304  6514  6516     1
 5305  6517  6518     1
 5306  6517  6519     1
 5307  6517  6518     1
 5308  6517  6519     1
 5309  6520  6521     1
 5310  6520  6522     1
 5311  6520  6521     1
 5312  6520  6522     1
 5313  6523  6524     1
 5314  6523  6525     1
 5315  6523  6524     1
 5316  6523  6525     1
 5317  6526  6527     1
 5318  6526  6528     1
 5319  6526  6527     1
 5320  6526  6528     1
 5321  6529  6530     1
 5322  6529  6531     1
 5323  6529  6530     1
 5324  6529  6531     1
 5325  6532  6533     1
 5326  6532  6534     1
 5327  6532  6533     1
 5328  6532  6534     1
 5329  6535  6536     1
 5330  6535  6537     1
 5331  6535  6536     1
 5332  6535  6537     1
 5333  6538  6539     1
 5334  6538  6540     1
 5335  6538  6539     1
 5336  6538  6540     1
 5337  6541  6542     1
 5338  6541  6543     1
 5339  6541  6542     1
 5340  6541  6543     1
 5341  6544  6545     1
 5342  6544  6546     1
 5343  6544  6545     1
 5344  6544  6546     1
 5345  6547  6548     1
 5346  6547  6549     1
 5347  6547  6548     1
 5348  6547  6549     1
 5349  6550  6551     1
 5350  6550  6552     1
 5351  6550  6551     1
 5352  6550  6552     1
 5353  6553  6554     1
 5354  6553  6555     1
 5355  6553  6554     1
 5356  6553  6555     1
 5357  6556  6557     1
 5358  6556  6558     1
 5359  6556  6557     1
 5360  6556  6558     1
 5361  6559  6560     1
 5362  6559  6561     1
 5363  6559  6560     1
 5364  6559  6561     1
 5365  6562  6563     1
 5366  6562  6564     1
 5367  6562  6563     1
 5368  6562  6564     1
 5369  6565  6566     1
 5370  6565  6567     1
 5371  6565  6566     1
 5372  6565  6567     1
 5373  6568  6569     1
 5374  6568  6570     1
 5375  6568  6569     1
 5376  6568  6570     1
 5377  6571  6572     1
 5378  6571  6573     1
 5379  6571  6572     1
 5380  6571  6573     1
 5381  6574  6575     1
 5382  6574  6576     1
 5383  6574  6575     1
 5384  6574  6576     1
 5385  6577  6578     1
 5386  6577  6579     1
 5387  6577  6578     1
 5388  6577  6579     1
 5389  6580  6581     1
 5390  6580  6582     1
 5391  6580  6581     1
 5392  6580  6582     1
 5393  6583  6584     1
 5394  6583  6585     1
 5395  6583  6584     1
 5396  6583  6585     1
 5397  6586  6587     1
 5398  6586  6588     1
 5399  6586  6587     1
 5400  6586  6588     1
 5401  6589  6590     1
 5402  6589  6591     1
 5403  6589  6590     1
 5404  6589  6591     1
 5405  6592  6593     1
 5406  6592  6594     1
 5407  6592  6593     1
 5408  6592  6594     1
 5409  6595  6596     1
 5410  6595  6597     1
 5411  6595  6596     1
 5412  6595  6597     1
 5413  6598  6599     1
 5414  6598  6600     1
 5415  6598  6599     1
 5416  6598  6600     1
 5417  6601  6602     1
 5418  6601  6603     1
 5419  6601  6602     1
 5420  6601  6603     1
 5421  6604  6605     1
 5422  6604  6606     1
 5423  6604  6605     1
 5424  6604  6606     1
 5425  6607  6608     1
 5426  6607  6609     1
 5427  6607  6608     1
 5428  6607  6609     1
 5429  6610  6611     1
 5430  6610  6612     1
 5431  6610  6611     1
 5432  6610  6612     1
 5433  6613  6614     1
 5434  6613  6615     1
 5435  6613  6614     1
 5436  6613  6615     1
 5437  6616  6617     1
 5438  6616  6618     1
 5439  6616  6617     1
 5440  6616  6618     1
 5441  6619  6620     1
 5442  6619  6621     1
 5443  6619  6620     1
 5444  6619  6621     1
 5445  6622  6623     1
 5446  6622  6624     1
 5447  6622  6623     1
 5448  6622  6624     1
 5449  6625  6626     1
 5450  6625  6627     1
 5451  6625  6626     1
 5452  6625  6627     1
 5453  6628  6629     1
 5454  6628  6630     1
 5455  6628  6629     1
 5456  6628  6630     1
 5457  6631  6632     1
 5458  6631  6633     1
 5459  6631  6632     1
 5460  6631  6633     1
 5461  6634  6635     1
 5462  6634  6636     1
 5463  6634  6635     1
 5464  6634  6636     1
 5465  6637  6638     1
 5466  6637  6639     1
 5467  6637  6638     1
 5468  6637  6639     1
 5469  6640  6641     1
 5470  6640  6642     1
 5471  6640  6641     1
 5472  6640  6642     1
 5473  6643  6644     1
 5474  6643  6645     1
 5475  6643  6644     1
 5476  6643  6645     1
 5477  6646  6647     1
 5478  6646  6648     1
 5479  6646  6647     1
 5480  6646  6648     1
 5481  6649  6650     1
 5482  6649  6651     1
 5483  6649  6650     1
 5484  6649  6651     1
 5485  6652  6653     1
 5486  6652  6654     1
 5487  6652  6653     1
 5488  6652  6654     1
 5489  6655  6656     1
 5490  6655  6657     1
 5491  6655  6656     1
 5492  6655  6657     1
 5493  6658  6659     1
 5494  6658  6660     1
 5495  6658  6659     1
 5496  6658  6660     1
 5497  6661  6662     1
 5498  6661  6663     1
 5499  6661  6662     1
 5500  6661  6663     1
 5501  6664  6665     1
 5502  6664  6666     1
 5503  6664  6665     1
 5504  6664  6666     1
 5505  6667  6668     1
 5506  6667  6669     1
 5507  6667  6668     1
 5508  6667  6669     1
 5509  6670  6671     1
 5510  6670  6672     1
 5511  6670  6671     1
 5512  6670  6672     1
 5513  6673  6674     1
 5514  6673  6675     1
 5515  6673  6674     1
 5516  6673  6675     1
 5517  6676  6677     1
 5518  6676  6678     1
 5519  6676  6677     1
 5520  6676  6678     1
 5521  6679  6680     1
 5522  6679  6681     1
 5523  6679  6680     1
 5524  6679  6681     1
 5525  6682  6683     1
 5526  6682  6684     1
 5527  6682  6683     1
 5528  6682  6684     1
 5529  6685  6686     1
 5530  6685  6687     1
 5531  6685  6686     1
 5532  6685  6687     1
 5533  6688  6689     1
 5534  6688  6690     1
 5535  6688  6689     1
 5536  6688  6690     1
 5537  6691  6692     1
 5538  6691  6693     1
 5539  6691  6692     1
 5540  6691  6693     1
 5541  6694  6695     1
 5542  6694  6696     1
 5543  6694  6695     1
 5544  6694  6696     1
 5545  6697  6698     1
 5546  6697  6699     1
 5547  6697  6698     1
 5548  6697  6699     1
 5549  6700  6701     1
 5550  6700  6702     1
 5551  6700  6701     1
 5552  6700  6702     1
 5553  6703  6704     1
 5554  6703  6705     1
 5555  6703  6704     1
 5556  6703  6705     1
 5557  6706  6707     1
 5558  6706  6708     1
 5559  6706  6707     1
 5560  6706  6708     1
 5561  6709  6710     1
 5562  6709  6711     1
 5563  6709  6710     1
 5564  6709  6711     1
 5565  6712  6713     1
 5566  6712  6714     1
 5567  6712  6713     1
 5568  6712  6714     1
 5569  6715  6716     1
 5570  6715  6717     1
 5571  6715  6716     1
 5572  6715  6717     1
 5573  6718  6719     1
 5574  6718  6720     1
 5575  6718  6719     1
 5576  6718  6720     1
 5577  6721  6722     1
 5578  6721  6723     1
 5579  6721  6722     1
 5580  6721  6723     1
 5581  6724  6725     1
 5582  6724  6726     1
 5583  6724  6725     1
 5584  6724  6726     1
 5585  6727  6728     1
 5586  6727  6729     1
 5587  6727  6728     1
 5588  6727  6729     1
 5589  6730  6731     1
 5590  6730  6732     1
 5591  6730  6731     1
 5592  6730  6732     1
 5593  6733  6734     1
 5594  6733  6735     1
 5595  6733  6734     1
 5596  6733  6735     1
 5597  6736  6737     1
 5598  6736  6738     1
 5599  6736  6737     1
 5600  6736  6738     1
 5601  6739  6740     1
 5602  6739  6741     1
 5603  6739  6740     1
 5604  6739  6741     1
 5605  6742  6743     1
 5606  6742  6744     1
 5607  6742  6743     1
 5608  6742  6744     1
 5609  6745  6746     1
 5610  6745  6747     1
 5611  6745  6746     1
 5612  6745  6747     1
 5613  6748  6749     1
 5614  6748  6750     1
 5615  6748  6749     1
 5616  6748  6750     1
 5617  6751  6752     1
 5618  6751  6753     1
 5619  6751  6752     1
 5620  6751  6753     1
 5621  6754  6755     1
 5622  6754  6756     1
 5623  6754  6755     1
 5624  6754  6756     1
 5625  6757  6758     1
 5626  6757  6759     1
 5627  6757  6758     1
 5628  6757  6759     1
 5629  6760  6761     1
 5630  6760  6762     1
 5631  6760  6761     1
 5632  6760  6762     1
 5633  6763  6764     1
 5634  6763  6765     1
 5635  6763  6764     1
 5636  6763  6765     1
 5637  6766  6767     1
 5638  6766  6768     1
 5639  6766  6767     1
 5640  6766  6768     1
 5641  6769  6770     1
 5642  6769  6771     1
 5643  6769  6770     1
 5644  6769  6771     1
 5645  6772  6773     1
 5646  6772  6774     1
 5647  6772  6773     1
 5648  6772  6774     1
 5649  6775  6776     1
 5650  6775  6777     1
 5651  6775  6776     1
 5652  6775  6777     1
 5653  6778  6779     1
 5654  6778  6780     1
 5655  6778  6779     1
 5656  6778  6780     1
 5657  6781  6782     1
 5658  6781  6783     1
 5659  6781  6782     1
 5660  6781  6783     1
 5661  6784  6785     1
 5662  6784  6786     1
 5663  6784  6785     1
 5664  6784  6786     1
 5665  6787  6788     1
 5666  6787  6789     1
 5667  6787  6788     1
 5668  6787  6789     1
 5669  6790  6791     1
 5670  6790  6792     1
 5671  6790  6791     1
 5672  6790  6792     1
 5673  6793  6794     1
 5674  6793  6795     1
 5675  6793  6794     1
 5676  6793  6795     1
 5677  6796  6797     1
 5678  6796  6798     1
 5679  6796  6797     1
 5680  6796  6798     1
 5681  6799  6800     1
 5682  6799  6801     1
 5683  6799  6800     1
 5684  6799  6801     1
 5685  6802  6803     1
 5686  6802  6804     1
 5687  6802  6803     1
 5688  6802  6804     1
 5689  6805  6806     1
 5690  6805  6807     1
 5691  6805  6806     1
 5692  6805  6807     1
 5693  6808  6809     1
 5694  6808  6810     1
 5695  6808  6809     1
 5696  6808  6810     1
 5697  6811  6812     1
 5698  6811  6813     1
 5699  6811  6812     1
 5700  6811  6813     1
 5701  6814  6815     1
 5702  6814  6816     1
 5703  6814  6815     1
 5704  6814  6816     1
 5705  6817  6818     1
 5706  6817  6819     1
 5707  6817  6818     1
 5708  6817  6819     1
 5709  6820  6821     1
 5710  6820  6822     1
 5711  6820  6821     1
 5712  6820  6822     1
 5713  6823  6824     1
 5714  6823  6825     1
 5715  6823  6824     1
 5716  6823  6825     1
 5717  6826  6827     1
 5718  6826  6828     1
 5719  6826  6827     1
 5720  6826  6828     1
 5721  6829  6830     1
 5722  6829  6831     1
 5723  6829  6830     1
 5724  6829  6831     1
 5725  6832  6833     1
 5726  6832  6834     1
 5727  6832  6833     1
 5728  6832  6834     1
 5729  6835  6836     1
 5730  6835  6837     1
 5731  6835  6836     1
 5732  6835  6837     1
 5733  6838  6839     1
 5734  6838  6840     1
 5735  6838  6839     1
 5736  6838  6840     1
 5737  6841  6842     1
 5738  6841  6843     1
 5739  6841  6842     1
 5740  6841  6843     1
 5741  6844  6845     1
 5742  6844  6846     1
 5743  6844  6845     1
 5744  6844  6846     1
 5745  6847  6848     1
 5746  6847  6849     1
 5747  6847  6848     1
 5748  6847  6849     1
 5749  6850  6851     1
 5750  6850  6852     1
 5751  6850  6851     1
 5752  6850  6852     1
 5753  6853  6854     1
 5754  6853  6855     1
 5755  6853  6854     1
 5756  6853  6855     1
 5757  6856  6857     1
 5758  6856  6858     1
 5759  6856  6857     1
 5760  6856  6858     1
 5761  6859  6860     1
 5762  6859  6861     1
 5763  6859  6860     1
 5764  6859  6861     1
 5765  6862  6863     1
 5766  6862  6864     1
 5767  6862  6863     1
 5768  6862  6864     1
 5769  6865  6866     1
 5770  6865  6867     1
 5771  6865  6866     1
 5772  6865  6867     1
 5773  6868  6869     1
 5774  6868  6870     1
 5775  6868  6869     1
 5776  6868  6870     1
 5777  6871  6872     1
 5778  6871  6873     1
 5779  6871  6872     1
 5780  6871  6873     1
 5781  6874  6875     1
 5782  6874  6876     1
 5783  6874  6875     1
 5784  6874  6876     1
 5785  6877  6878     1
 5786  6877  6879     1
 5787  6877  6878     1
 5788  6877  6879     1
 5789  6880  6881     1
 5790  6880  6882     1
 5791  6880  6881     1
 5792  6880  6882     1
 5793  6883  6884     1
 5794  6883  6885     1
 5795  6883  6884     1
 5796  6883  6885     1
 5797  6886  6887     1
 5798  6886  6888     1
 5799  6886  6887     1
 5800  6886  6888     1
 5801  6889  6890     1
 5802  6889  6891     1
 5803  6889  6890     1
 5804  6889  6891     1
 5805  6892  6893     1
 5806  6892  6894     1
 5807  6892  6893     1
 5808  6892  6894     1
 5809  6895  6896     1
 5810  6895  6897     1
 5811  6895  6896     1
 5812  6895  6897     1
 5813  6898  6899     1
 5814  6898  6900     1
 5815  6898  6899     1
 5816  6898  6900     1
 5817  6901  6902     1
 5818  6901  6903     1
 5819  6901  6902     1
 5820  6901  6903     1
 5821  6904  6905     1
 5822  6904  6906     1
 5823  6904  6905     1
 5824  6904  6906     1
 5825  6907  6908     1
 5826  6907  6909     1
 5827  6907  6908     1
 5828  6907  6909     1
 5829  6910  6911     1
 5830  6910  6912     1
 5831  6910  6911     1
 5832  6910  6912     1
 5833  6913  6914     1
 5834  6913  6915     1
 5835  6913  6914     1
 5836  6913  6915     1
 5837  6916  6917     1
 5838  6916  6918     1
 5839  6916  6917     1
 5840  6916  6918     1
 5841  6919  6920     1
 5842  6919  6921     1
 5843  6919  6920     1
 5844  6919  6921     1
 5845  6922  6923     1
 5846  6922  6924     1
 5847  6922  6923     1
 5848  6922  6924     1
 5849  6925  6926     1
 5850  6925  6927     1
 5851  6925  6926     1
 5852  6925  6927     1
 5853  6928  6929     1
 5854  6928  6930     1
 5855  6928  6929     1
 5856  6928  6930     1
 5857  6931  6932     1
 5858  6931  6933     1
 5859  6931  6932     1
 5860  6931  6933     1
 5861  6934  6935     1
 5862  6934  6936     1
 5863  6934  6935     1
 5864  6934  6936     1
 5865  6937  6938     1
 5866  6937  6939     1
 5867  6937  6938     1
 5868  6937  6939     1
 5869  6940  6941     1
 5870  6940  6942     1
 5871  6940  6941     1
 5872  6940  6942     1
 5873  6943  6944     1
 5874  6943  6945     1
 5875  6943  6944     1
 5876  6943  6945     1
 5877  6946  6947     1
 5878  6946  6948     1
 5879  6946  6947     1
 5880  6946  6948     1
 5881  6949  6950     1
 5882  6949  6951     1
 5883  6949  6950     1
 5884  6949  6951     1
 5885  6952  6953     1
 5886  6952  6954     1
 5887  6952  6953     1
 5888  6952  6954     1
 5889  6955  6956     1
 5890  6955  6957     1
 5891  6955  6956     1
 5892  6955  6957     1
 5893  6958  6959     1
 5894  6958  6960     1
 5895  6958  6959     1
 5896  6958  6960     1
 5897  6961  6962     1
 5898  6961  6963     1
 5899  6961  6962     1
 5900  6961  6963     1
 5901  6964  6965     1
 5902  6964  6966     1
 5903  6964  6965     1
 5904  6964  6966     1
 5905  6967  6968     1
 5906  6967  6969     1
 5907  6967  6968     1
 5908  6967  6969     1
 5909  6970  6971     1
 5910  6970  6972     1
 5911  6970  6971     1
 5912  6970  6972     1
 5913  6973  6974     1
 5914  6973  6975     1
 5915  6973  6974     1
 5916  6973  6975     1
 5917  6976  6977     1
 5918  6976  6978     1
 5919  6976  6977     1
 5920  6976  6978     1
 5921  6979  6980     1
 5922  6979  6981     1
 5923  6979  6980     1
 5924  6979  6981     1
 5925  6982  6983     1
 5926  6982  6984     1
 5927  6982  6983     1
 5928  6982  6984     1
 5929  6985  6986     1
 5930  6985  6987     1
 5931  6985  6986     1
 5932  6985  6987     1
 5933  6988  6989     1
 5934  6988  6990     1
 5935  6988  6989     1
 5936  6988  6990     1
 5937  6991  6992     1
 5938  6991  6993     1
 5939  6991  6992     1
 5940  6991  6993     1
 5941  6994  6995     1
 5942  6994  6996     1
 5943  6994  6995     1
 5944  6994  6996     1
 5945  6997  6998     1
 5946  6997  6999     1
 5947  6997  6998     1
 5948  6997  6999     1
 5949  7000  7001     1
 5950  7000  7002     1
 5951  7000  7001     1
 5952  7000  7002     1
 5953  7003  7004     1
 5954  7003  7005     1
 5955  7003  7004     1
 5956  7003  7005     1
 5957  7006  7007     1
 5958  7006  7008     1
 5959  7006  7007     1
 5960  7006  7008     1
 5961  7009  7010     1
 5962  7009  7011     1
 5963  7009  7010     1
 5964  7009  7011     1
 5965  7012  7013     1
 5966  7012  7014     1
 5967  7012  7013     1
 5968  7012  7014     1
 5969  7015  7016     1
 5970  7015  7017     1
 5971  7015  7016     1
 5972  7015  7017     1
 5973  7018  7019     1
 5974  7018  7020     1
 5975  7018  7019     1
 5976  7018  7020     1
 5977  7021  7022     1
 5978  7021  7023     1
 5979  7021  7022     1
 5980  7021  7023     1
 5981  7024  7025     1
 5982  7024  7026     1
 5983  7024  7025     1
 5984  7024  7026     1
 5985  7027  7028     1
 5986  7027  7029     1
 5987  7027  7028     1
 5988  7027  7029     1
 5989  7030  7031     1
 5990  7030  7032     1
 5991  7030  7031     1
 5992  7030  7032     1
 5993  7033  7034     1
 5994  7033  7035     1
 5995  7033  7034     1
 5996  7033  7035     1
 5997  7036  7037     1
 5998  7036  7038     1
 5999  7036  7037     1
 6000  7036  7038     1
 6001  7039  7040     1
 6002  7039  7041     1
 6003  7039  7040     1
 6004  7039  7041     1
 6005  7042  7043     1
 6006  7042  7044     1
 6007  7042  7043     1
 6008  7042  7044     1
 6009  7045  7046     1
 6010  7045  7047     1
 6011  7045  7046     1
 6012  7045  7047     1
 6013  7048  7049     1
 6014  7048  7050     1
 6015  7048  7049     1
 6016  7048  7050     1
 6017  7051  7052     1
 6018  7051  7053     1
 6019  7051  7052     1
 6020  7051  7053     1
 6021  7054  7055     1
 6022  7054  7056     1
 6023  7054  7055     1
 6024  7054  7056     1
 6025  7057  7058     1
 6026  7057  7059     1
 6027  7057  7058     1
 6028  7057  7059     1
 6029  7060  7061     1
 6030  7060  7062     1
 6031  7060  7061     1
 6032  7060  7062     1
 6033  7063  7064     1
 6034  7063  7065     1
 6035  7063  7064     1
 6036  7063  7065     1
 6037  7066  7067     1
 6038  7066  7068     1
 6039  7066  7067     1
 6040  7066  7068     1
 6041  7069  7070     1
 6042  7069  7071     1
 6043  7069  7070     1
 6044  7069  7071     1
 6045  7072  7073     1
 6046  7072  7074     1
 6047  7072  7073     1
 6048  7072  7074     1
 6049  7075  7076     1
 6050  7075  7077     1
 6051  7075  7076     1
 6052  7075  7077     1
 6053  7078  7079     1
 6054  7078  7080     1
 6055  7078  7079     1
 6056  7078  7080     1
 6057  7081  7082     1
 6058  7081  7083     1
 6059  7081  7082     1
 6060  7081  7083     1
 6061  7084  7085     1
 6062  7084  7086     1
 6063  7084  7085     1
 6064  7084  7086     1
 6065  7087  7088     1
 6066  7087  7089     1
 6067  7087  7088     1
 6068  7087  7089     1
 6069  7090  7091     1
 6070  7090  7092     1
 6071  7090  7091     1
 6072  7090  7092     1
 6073  7093  7094     1
 6074  7093  7095     1
 6075  7093  7094     1
 6076  7093  7095     1
 6077  7096  7097     1
 6078  7096  7098     1
 6079  7096  7097     1
 6080  7096  7098     1
 6081  7099  7100     1
 6082  7099  7101     1
 6083  7099  7100     1
 6084  7099  7101     1
 6085  7102  7103     1
 6086  7102  7104     1
 6087  7102  7103     1
 6088  7102  7104     1
 6089  7105  7106     1
 6090  7105  7107     1
 6091  7105  7106     1
 6092  7105  7107     1
 6093  7108  7109     1
 6094  7108  7110     1
 6095  7108  7109     1
 6096  7108  7110     1
 6097  7111  7112     1
 6098  7111  7113     1
 6099  7111  7112     1
 6100  7111  7113     1
 6101  7114  7115     1
 6102  7114  7116     1
 6103  7114  7115     1
 6104  7114  7116     1
 6105  7117  7118     1
 6106  7117  7119     1
 6107  7117  7118     1
 6108  7117  7119     1
 6109  7120  7121     1
 6110  7120  7122     1
 6111  7120  7121     1
 6112  7120  7122     1
 6113  7123  7124     1
 6114  7123  7125     1
 6115  7123  7124     1
 6116  7123  7125     1
 6117  7126  7127     1
 6118  7126  7128     1
 6119  7126  7127     1
 6120  7126  7128     1
 6121  7129  7130     1
 6122  7129  7131     1
 6123  7129  7130     1
 6124  7129  7131     1
 6125  7132  7133     1
 6126  7132  7134     1
 6127  7132  7133     1
 6128  7132  7134     1
 6129  7135  7136     1
 6130  7135  7137     1
 6131  7135  7136     1
 6132  7135  7137     1
 6133  7138  7139     1
 6134  7138  7140     1
 6135  7138  7139     1
 6136  7138  7140     1
 6137  7141  7142     1
 6138  7141  7143     1
 6139  7141  7142     1
 6140  7141  7143     1
 6141  7144  7145     1
 6142  7144  7146     1
 6143  7144  7145     1
 6144  7144  7146     1
 6145  7147  7148     1
 6146  7147  7149     1
 6147  7147  7148     1
 6148  7147  7149     1
 6149  7150  7151     1
 6150  7150  7152     1
 6151  7150  7151     1
 6152  7150  7152     1
 6153  7153  7154     1
 6154  7153  7155     1
 6155  7153  7154     1
 6156  7153  7155     1
 6157  7156  7157     1
 6158  7156  7158     1
 6159  7156  7157     1
 6160  7156  7158     1
 6161  7159  7160     1
 6162  7159  7161     1
 6163  7159  7160     1
 6164  7159  7161     1
 6165  7162  7163     1
 6166  7162  7164     1
 6167  7162  7163     1
 6168  7162  7164     1
 6169  7165  7166     1
 6170  7165  7167     1
 6171  7165  7166     1
 6172  7165  7167     1
 6173  7168  7169     1
 6174  7168  7170     1
 6175  7168  7169     1
 6176  7168  7170     1
 6177  7171  7172     1
 6178  7171  7173     1
 6179  7171  7172     1
 6180  7171  7173     1
 6181  7174  7175     1
 6182  7174  7176     1
 6183  7174  7175     1
 6184  7174  7176     1
 6185  7177  7178     1
 6186  7177  7179     1
 6187  7177  7178     1
 6188  7177  7179     1
 6189  7180  7181     1
 6190  7180  7182     1
 6191  7180  7181     1
 6192  7180  7182     1
 6193  7183  7184     1
 6194  7183  7185     1
 6195  7183  7184     1
 6196  7183  7185     1
 6197  7186  7187     1
 6198  7186  7188     1
 6199  7186  7187     1
 6200  7186  7188     1
 6201  7189  7190     1
 6202  7189  7191     1
 6203  7189  7190     1
 6204  7189  7191     1
 6205  7192  7193     1
 6206  7192  7194     1
 6207  7192  7193     1
 6208  7192  7194     1
 6209  7195  7196     1
 6210  7195  7197     1
 6211  7195  7196     1
 6212  7195  7197     1
 6213  7198  7199     1
 6214  7198  7200     1
 6215  7198  7199     1
 6216  7198  7200     1
 6217  7201  7202     1
 6218  7201  7203     1
 6219  7201  7202     1
 6220  7201  7203     1
 6221  7204  7205     1
 6222  7204  7206     1
 6223  7204  7205     1
 6224  7204  7206     1
 6225  7207  7208     1
 6226  7207  7209     1
 6227  7207  7208     1
 6228  7207  7209     1
 6229  7210  7211     1
 6230  7210  7212     1
 6231  7210  7211     1
 6232  7210  7212     1
 6233  7213  7214     1
 6234  7213  7215     1
 6235  7213  7214     1
 6236  7213  7215     1
 6237  7216  7217     1
 6238  7216  7218     1
 6239  7216  7217     1
 6240  7216  7218     1
 6241  7219  7220     1
 6242  7219  7221     1
 6243  7219  7220     1
 6244  7219  7221     1
 6245  7222  7223     1
 6246  7222  7224     1
 6247  7222  7223     1
 6248  7222  7224     1
 6249  7225  7226     1
 6250  7225  7227     1
 6251  7225  7226     1
 6252  7225  7227     1
 6253  7228  7229     1
 6254  7228  7230     1
 6255  7228  7229     1
 6256  7228  7230     1
 6257  7231  7232     1
 6258  7231  7233     1
 6259  7231  7232     1
 6260  7231  7233     1
 6261  7234  7235     1
 6262  7234  7236     1
 6263  7234  7235     1
 6264  7234  7236     1
 6265  7237  7238     1
 6266  7237  7239     1
 6267  7237  7238     1
 6268  7237  7239     1
 6269  7240  7241     1
 6270  7240  7242     1
 6271  7240  7241     1
 6272  7240  7242     1
 6273  7243  7244     1
 6274  7243  7245     1
 6275  7243  7244     1
 6276  7243  7245     1
 6277  7246  7247     1
 6278  7246  7248     1
 6279  7246  7247     1
 6280  7246  7248     1
 6281  7249  7250     1
 6282  7249  7251     1
 6283  7249  7250     1
 6284  7249  7251     1
 6285  7252  7253     1
 6286  7252  7254     1
 6287  7252  7253     1
 6288  7252  7254     1
 6289  7255  7256     1
 6290  7255  7257     1
 6291  7255  7256     1
 6292  7255  7257     1
 6293  7258  7259     1
 6294  7258  7260     1
 6295  7258  7259     1
 6296  7258  7260     1
 6297  7261  7262     1
 6298  7261  7263     1
 6299  7261  7262     1
 6300  7261  7263     1
 6301  7264  7265     1
 6302  7264  7266     1
 6303  7264  7265     1
 6304  7264  7266     1
 6305  7267  7268     1
 6306  7267  7269     1
 6307  7267  7268     1
 6308  7267  7269     1
 6309  7270  7271     1
 6310  7270  7272     1
 6311  7270  7271     1
 6312  7270  7272     1
 6313  7273  7274     1
 6314  7273  7275     1
 6315  7273  7274     1
 6316  7273  7275     1
 6317  7276  7277     1
 6318  7276  7278     1
 6319  7276  7277     1
 6320  7276  7278     1
 6321  7279  7280     1
 6322  7279  7281     1
 6323  7279  7280     1
 6324  7279  7281     1
 6325  7282  7283     1
 6326  7282  7284     1
 6327  7282  7283     1
 6328  7282  7284     1
 6329  7285  7286     1
 6330  7285  7287     1
 6331  7285  7286     1
 6332  7285  7287     1
 6333  7288  7289     1
 6334  7288  7290     1
 6335  7288  7289     1
 6336  7288  7290     1
 6337  7291  7292     1
 6338  7291  7293     1
 6339  7291  7292     1
 6340  7291  7293     1
 6341  7294  7295     1
 6342  7294  7296     1
 6343  7294  7295     1
 6344  7294  7296     1
 6345  7297  7298     1
 6346  7297  7299     1
 6347  7297  7298     1
 6348  7297  7299     1
 6349  7300  7301     1
 6350  7300  7302     1
 6351  7300  7301     1
 6352  7300  7302     1
 6353  7303  7304     1
 6354  7303  7305     1
 6355  7303  7304     1
 6356  7303  7305     1
 6357  7306  7307     1
 6358  7306  7308     1
 6359  7306  7307     1
 6360  7306  7308     1
 6361  7309  7310     1
 6362  7309  7311     1
 6363  7309  7310     1
 6364  7309  7311     1
 6365  7312  7313     1
 6366  7312  7314     1
 6367  7312  7313     1
 6368  7312  7314     1
 6369  7315  7316     1
 6370  7315  7317     1
 6371  7315  7316     1
 6372  7315  7317     1
 6373  7318  7319     1
 6374  7318  7320     1
 6375  7318  7319     1
 6376  7318  7320     1
 6377  7321  7322     1
 6378  7321  7323     1
 6379  7321  7322     1
 6380  7321  7323     1
 6381  7324  7325     1
 6382  7324  7326     1
 6383  7324  7325     1
 6384  7324  7326     1
 6385  7327  7328     1
 6386  7327  7329     1
 6387  7327  7328     1
 6388  7327  7329     1
 6389  7330  7331     1
 6390  7330  7332     1
 6391  7330  7331     1
 6392  7330  7332     1
 6393  7333  7334     1
 6394  7333  7335     1
 6395  7333  7334     1
 6396  7333  7335     1
 6397  7336  7337     1
 6398  7336  7338     1
 6399  7336  7337     1
 6400  7336  7338     1
 6401  7339  7340     1
 6402  7339  7341     1
 6403  7339  7340     1
 6404  7339  7341     1
 6405  7342  7343     1
 6406  7342  7344     1
 6407  7342  7343     1
 6408  7342  7344     1
 6409  7345  7346     1
 6410  7345  7347     1
 6411  7345  7346     1
 6412  7345  7347     1
 6413  7348  7349     1
 6414  7348  7350     1
 6415  7348  7349     1
 6416  7348  7350     1
 6417  7351  7352     1
 6418  7351  7353     1
 6419  7351  7352     1
 6420  7351  7353     1
 6421  7354  7355     1
 6422  7354  7356     1
 6423  7354  7355     1
 6424  7354  7356     1
 6425  7357  7358     1
 6426  7357  7359     1
 6427  7357  7358     1
 6428  7357  7359     1
 6429  7360  7361     1
 6430  7360  7362     1
 6431  7360  7361     1
 6432  7360  7362     1
 6433  7363  7364     1
 6434  7363  7365     1
 6435  7363  7364     1
 6436  7363  7365     1
 6437  7366  7367     1
 6438  7366  7368     1
 6439  7366  7367     1
 6440  7366  7368     1
 6441  7369  7370     1
 6442  7369  7371     1
 6443  7369  7370     1
 6444  7369  7371     1
 6445  7372  7373     1
 6446  7372  7374     1
 6447  7372  7373     1
 6448  7372  7374     1
 6449  7375  7376     1
 6450  7375  7377     1
 6451  7375  7376     1
 6452  7375  7377     1
 6453  7378  7379     1
 6454  7378  7380     1
 6455  7378  7379     1
 6456  7378  7380     1
 6457  7381  7382     1
 6458  7381  7383     1
 6459  7381  7382     1
 6460  7381  7383     1
 6461  7384  7385     1
 6462  7384  7386     1
 6463  7384  7385     1
 6464  7384  7386     1
 6465  7387  7388     1
 6466  7387  7389     1
 6467  7387  7388     1
 6468  7387  7389     1
 6469  7390  7391     1
 6470  7390  7392     1
 6471  7390  7391     1
 6472  7390  7392     1
 6473  7393  7394     1
 6474  7393  7395     1
 6475  7393  7394     1
 6476  7393  7395     1
 6477  7396  7397     1
 6478  7396  7398     1
 6479  7396  7397     1
 6480  7396  7398     1
 6481  7399  7400     1
 6482  7399  7401     1
 6483  7399  7400     1
 6484  7399  7401     1
 6485  7402  7403     1
 6486  7402  7404     1
 6487  7402  7403     1
 6488  7402  7404     1
 6489  7405  7406     1
 6490  7405  7407     1
 6491  7405  7406     1
 6492  7405  7407     1
 6493  7408  7409     1
 6494  7408  7410     1
 6495  7408  7409     1
 6496  7408  7410     1
 6497  7411  7412     1
 6498  7411  7413     1
 6499  7411  7412     1
 6500  7411  7413     1
 6501  7414  7415     1
 6502  7414  7416     1
 6503  7414  7415     1
 6504  7414  7416     1
 6505  7417  7418     1
 6506  7417  7419     1
 6507  7417  7418     1
 6508  7417  7419     1
 6509  7420  7421     1
 6510  7420  7422     1
 6511  7420  7421     1
 6512  7420  7422     1
 6513  7423  7424     1
 6514  7423  7425     1
 6515  7423  7424     1
 6516  7423  7425     1
 6517  7426  7427     1
 6518  7426  7428     1
 6519  7426  7427     1
 6520  7426  7428     1
 6521  7429  7430     1
 6522  7429  7431     1
 6523  7429  7430     1
 6524  7429  7431     1
 6525  7432  7433     1
 6526  7432  7434     1
 6527  7432  7433     1
 6528  7432  7434     1
 6529  7435  7436     1
 6530  7435  7437     1
 6531  7435  7436     1
 6532  7435  7437     1
 6533  7438  7439     1
 6534  7438  7440     1
 6535  7438  7439     1
 6536  7438  7440     1
 6537  7441  7442     1
 6538  7441  7443     1
 6539  7441  7442     1
 6540  7441  7443     1
 6541  7444  7445     1
 6542  7444  7446     1
 6543  7444  7445     1
 6544  7444  7446     1
 6545  7447  7448     1
 6546  7447  7449     1
 6547  7447  7448     1
 6548  7447  7449     1
 6549  7450  7451     1
 6550  7450  7452     1
 6551  7450  7451     1
 6552  7450  7452     1
 6553  7453  7454     1
 6554  7453  7455     1
 6555  7453  7454     1
 6556  7453  7455     1
 6557  7456  7457     1
 6558  7456  7458     1
 6559  7456  7457     1
 6560  7456  7458     1
 6561  7459  7460     1
 6562  7459  7461     1
 6563  7459  7460     1
 6564  7459  7461     1
 6565  7462  7463     1
 6566  7462  7464     1
 6567  7462  7463     1
 6568  7462  7464     1
 6569  7465  7466     1
 6570  7465  7467     1
 6571  7465  7466     1
 6572  7465  7467     1
 6573  7468  7469     1
 6574  7468  7470     1
 6575  7468  7469     1
 6576  7468  7470     1
 6577  7471  7472     1
 6578  7471  7473     1
 6579  7471  7472     1
 6580  7471  7473     1
 6581  7474  7475     1
 6582  7474  7476     1
 6583  7474  7475     1
 6584  7474  7476     1
 6585  7477  7478     1
 6586  7477  7479     1
 6587  7477  7478     1
 6588  7477  7479     1
 6589  7480  7481     1
 6590  7480  7482     1
 6591  7480  7481     1
 6592  7480  7482     1
 6593  7483  7484     1
 6594  7483  7485     1
 6595  7483  7484     1
 6596  7483  7485     1
 6597  7486  7487     1
 6598  7486  7488     1
 6599  7486  7487     1
 6600  7486  7488     1
 6601  7489  7490     1
 6602  7489  7491     1
 6603  7489  7490     1
 6604  7489  7491     1
 6605  7492  7493     1
 6606  7492  7494     1
 6607  7492  7493     1
 6608  7492  7494     1
 6609  7495  7496     1
 6610  7495  7497     1
 6611  7495  7496     1
 6612  7495  7497     1
 6613  7498  7499     1
 6614  7498  7500     1
 6615  7498  7499     1
 6616  7498  7500     1
 6617  7501  7502     1
 6618  7501  7503     1
 6619  7501  7502     1
 6620  7501  7503     1
 6621  7504  7505     1
 6622  7504  7506     1
 6623  7504  7505     1
 6624  7504  7506     1
 6625  7507  7508     1
 6626  7507  7509     1
 6627  7507  7508     1
 6628  7507  7509     1
 6629  7510  7511     1
 6630  7510  7512     1
 6631  7510  7511     1
 6632  7510  7512     1
 6633  7513  7514     1
 6634  7513  7515     1
 6635  7513  7514     1
 6636  7513  7515     1
 6637  7516  7517     1
 6638  7516  7518     1
 6639  7516  7517     1
 6640  7516  7518     1
 6641  7519  7520     1
 6642  7519  7521     1
 6643  7519  7520     1
 6644  7519  7521     1
 6645  7522  7523     1
 6646  7522  7524     1
 6647  7522  7523     1
 6648  7522  7524     1
 6649  7525  7526     1
 6650  7525  7527     1
 6651  7525  7526     1
 6652  7525  7527     1
 6653  7528  7529     1
 6654  7528  7530     1
 6655  7528  7529     1
 6656  7528  7530     1
 6657  7531  7532     1
 6658  7531  7533     1
 6659  7531  7532     1
 6660  7531  7533     1
 6661  7534  7535     1
 6662  7534  7536     1
 6663  7534  7535     1
 6664  7534  7536     1
 6665  7537  7538     1
 6666  7537  7539     1
 6667  7537  7538     1
 6668  7537  7539     1
 6669  7540  7541     1
 6670  7540  7542     1
 6671  7540  7541     1
 6672  7540  7542     1
 6673  7543  7544     1
 6674  7543  7545     1
 6675  7543  7544     1
 6676  7543  7545     1
 6677  7546  7547     1
 6678  7546  7548     1
 6679  7546  7547     1
 6680  7546  7548     1
 6681  7549  7550     1
 6682  7549  7551     1
 6683  7549  7550     1
 6684  7549  7551     1
 6685  7552  7553     1
 6686  7552  7554     1
 6687  7552  7553     1
 6688  7552  7554     1
 6689  7555  7556     1
 6690  7555  7557     1
 6691  7555  7556     1
 6692  7555  7557     1
 6693  7558  7559     1
 6694  7558  7560     1
 6695  7558  7559     1
 6696  7558  7560     1
 6697  7561  7562     1
 6698  7561  7563     1
 6699  7561  7562     1
 6700  7561  7563     1
 6701  7564  7565     1
 6702  7564  7566     1
 6703  7564  7565     1
 6704  7564  7566     1
 6705  7567  7568     1
 6706  7567  7569     1
 6707  7567  7568     1
 6708  7567  7569     1
 6709  7570  7571     1
 6710  7570  7572     1
 6711  7570  7571     1
 6712  7570  7572     1
 6713  7573  7574     1
 6714  7573  7575     1
 6715  7573  7574     1
 6716  7573  7575     1
 6717  7576  7577     1
 6718  7576  7578     1
 6719  7576  7577     1
 6720  7576  7578     1
 6721  7579  7580     1
 6722  7579  7581     1
 6723  7579  7580     1
 6724  7579  7581     1
 6725  7582  7583     1
 6726  7582  7584     1
 6727  7582  7583     1
 6728  7582  7584     1
 6729  7585  7586     1
 6730  7585  7587     1
 6731  7585  7586     1
 6732  7585  7587     1
 6733  7588  7589     1
 6734  7588  7590     1
 6735  7588  7589     1
 6736  7588  7590     1
 6737  7591  7592     1
 6738  7591  7593     1
 6739  7591  7592     1
 6740  7591  7593     1
 6741  7594  7595     1
 6742  7594  7596     1
 6743  7594  7595     1
 6744  7594  7596     1
 6745  7597  7598     1
 6746  7597  7599     1
 6747  7597  7598     1
 6748  7597  7599     1
 6749  7600  7601     1
 6750  7600  7602     1
 6751  7600  7601     1
 6752  7600  7602     1
 6753  7603  7604     1
 6754  7603  7605     1
 6755  7603  7604     1
 6756  7603  7605     1
 6757  7606  7607     1
 6758  7606  7608     1
 6759  7606  7607     1
 6760  7606  7608     1
 6761  7609  7610     1
 6762  7609  7611     1
 6763  7609  7610     1
 6764  7609  7611     1
 6765  7612  7613     1
 6766  7612  7614     1
 6767  7612  7613     1
 6768  7612  7614     1
 6769  7615  7616     1
 6770  7615  7617     1
 6771  7615  7616     1
 6772  7615  7617     1
 6773  7618  7619     1
 6774  7618  7620     1
 6775  7618  7619     1
 6776  7618  7620     1
 6777  7621  7622     1
 6778  7621  7623     1
 6779  7621  7622     1
 6780  7621  7623     1
 6781  7624  7625     1
 6782  7624  7626     1
 6783  7624  7625     1
 6784  7624  7626     1
 6785  7627  7628     1
 6786  7627  7629     1
 6787  7627  7628     1
 6788  7627  7629     1
 6789  7630  7631     1
 6790  7630  7632     1
 6791  7630  7631     1
 6792  7630  7632     1
 6793  7633  7634     1
 6794  7633  7635     1
 6795  7633  7634     1
 6796  7633  7635     1
 6797  7636  7637     1
 6798  7636  7638     1
 6799  7636  7637     1
 6800  7636  7638     1
 6801  7639  7640     1
 6802  7639  7641     1
 6803  7639  7640     1
 6804  7639  7641     1
 6805  7642  7643     1
 6806  7642  7644     1
 6807  7642  7643     1
 6808  7642  7644     1
 6809  7645  7646     1
 6810  7645  7647     1
 6811  7645  7646     1
 6812  7645  7647     1
 6813  7648  7649     1
 6814  7648  7650     1
 6815  7648  7649     1
 6816  7648  7650     1
 6817  7651  7652     1
 6818  7651  7653     1
 6819  7651  7652     1
 6820  7651  7653     1
 6821  7654  7655     1
 6822  7654  7656     1
 6823  7654  7655     1
 6824  7654  7656     1
 6825  7657  7658     1
 6826  7657  7659     1
 6827  7657  7658     1
 6828  7657  7659     1
 6829  7660  7661     1
 6830  7660  7662     1
 6831  7660  7661     1
 6832  7660  7662     1
 6833  7663  7664     1
 6834  7663  7665     1
 6835  7663  7664     1
 6836  7663  7665     1
 6837  7666  7667     1
 6838  7666  7668     1
 6839  7666  7667     1
 6840  7666  7668     1
 6841  7669  7670     1
 6842  7669  7671     1
 6843  7669  7670     1
 6844  7669  7671     1
 6845  7672  7673     1
 6846  7672  7674     1
 6847  7672  7673     1
 6848  7672  7674     1
 6849  7675  7676     1
 6850  7675  7677     1
 6851  7675  7676     1
 6852  7675  7677     1
 6853  7678  7679     1
 6854  7678  7680     1
 6855  7678  7679     1
 6856  7678  7680     1
 6857  7681  7682     1
 6858  7681  7683     1
 6859  7681  7682     1
 6860  7681  7683     1
 6861  7684  7685     1
 6862  7684  7686     1
 6863  7684  7685     1
 6864  7684  7686     1
 6865  7687  7688     1
 6866  7687  7689     1
 6867  7687  7688     1
 6868  7687  7689     1
 6869  7690  7691     1
 6870  7690  7692     1
 6871  7690  7691     1
 6872  7690  7692     1
 6873  7693  7694     1
 6874  7693  7695     1
 6875  7693  7694     1
 6876  7693  7695     1
 6877  7696  7697     1
 6878  7696  7698     1
 6879  7696  7697     1
 6880  7696  7698     1
 6881  7699  7700     1
 6882  7699  7701     1
 6883  7699  7700     1
 6884  7699  7701     1
 6885  7702  7703     1
 6886  7702  7704     1
 6887  7702  7703     1
 6888  7702  7704     1
 6889  7705  7706     1
 6890  7705  7707     1
 6891  7705  7706     1
 6892  7705  7707     1
 6893  7708  7709     1
 6894  7708  7710     1
 6895  7708  7709     1
 6896  7708  7710     1
 6897  7711  7712     1
 6898  7711  7713     1
 6899  7711  7712     1
 6900  7711  7713     1
 6901  7714  7715     1
 6902  7714  7716     1
 6903  7714  7715     1
 6904  7714  7716     1
 6905  7717  7718     1
 6906  7717  7719     1
 6907  7717  7718     1
 6908  7717  7719     1
 6909  7720  7721     1
 6910  7720  7722     1
 6911  7720  7721     1
 6912  7720  7722     1
 6913  7723  7724     1
 6914  7723  7725     1
 6915  7723  7724     1
 6916  7723  7725     1
 6917  7726  7727     1
 6918  7726  7728     1
 6919  7726  7727     1
 6920  7726  7728     1
 6921  7729  7730     1
 6922  7729  7731     1
 6923  7729  7730     1
 6924  7729  7731     1
 6925  7732  7733     1
 6926  7732  7734     1
 6927  7732  7733     1
 6928  7732  7734     1
 6929  7735  7736     1
 6930  7735  7737     1
 6931  7735  7736     1
 6932  7735  7737     1
 6933  7738  7739     1
 6934  7738  7740     1
 6935  7738  7739     1
 6936  7738  7740     1
 6937  7741  7742     1
 6938  7741  7743     1
 6939  7741  7742     1
 6940  7741  7743     1
 6941  7744  7745     1
 6942  7744  7746     1
 6943  7744  7745     1
 6944  7744  7746     1
 6945  7747  7748     1
 6946  7747  7749     1
 6947  7747  7748     1
 6948  7747  7749     1
 6949  7750  7751     1
 6950  7750  7752     1
 6951  7750  7751     1
 6952  7750  7752     1
 6953  7753  7754     1
 6954  7753  7755     1
 6955  7753  7754     1
 6956  7753  7755     1
 6957  7756  7757     1
 6958  7756  7758     1
 6959  7756  7757     1
 6960  7756  7758     1
 6961  7759  7760     1
 6962  7759  7761     1
 6963  7759  7760     1
 6964  7759  7761     1
 6965  7762  7763     1
 6966  7762  7764     1
 6967  7762  7763     1
 6968  7762  7764     1
 6969  7765  7766     1
 6970  7765  7767     1
 6971  7765  7766     1
 6972  7765  7767     1
 6973  7768  7769     1
 6974  7768  7770     1
 6975  7768  7769     1
 6976  7768  7770     1
 6977  7771  7772     1
 6978  7771  7773     1
 6979  7771  7772     1
 6980  7771  7773     1
 6981  7774  7775     1
 6982  7774  7776     1
 6983  7774  7775     1
 6984  7774  7776     1
 6985  7777  7778     1
 6986  7777  7779     1
 6987  7777  7778     1
 6988  7777  7779     1
 6989  7780  7781     1
 6990  7780  7782     1
 6991  7780  7781     1
 6992  7780  7782     1
 6993  7783  7784     1
 6994  7783  7785     1
 6995  7783  7784     1
 6996  7783  7785     1
 6997  7786  7787     1
 6998  7786  7788     1
 6999  7786  7787     1
 7000  7786  7788     1
 7001  7789  7790     1
 7002  7789  7791     1
 7003  7789  7790     1
 7004  7789  7791     1
 7005  7792  7793     1
 7006  7792  7794     1
 7007  7792  7793     1
 7008  7792  7794     1
 7009  7795  7796     1
 7010  7795  7797     1
 7011  7795  7796     1
 7012  7795  7797     1
 7013  7798  7799     1
 7014  7798  7800     1
 7015  7798  7799     1
 7016  7798  7800     1
 7017  7801  7802     1
 7018  7801  7803     1
 7019  7801  7802     1
 7020  7801  7803     1
 7021  7804  7805     1
 7022  7804  7806     1
 7023  7804  7805     1
 7024  7804  7806     1
 7025  7807  7808     1
 7026  7807  7809     1
 7027  7807  7808     1
 7028  7807  7809     1
 7029  7810  7811     1
 7030  7810  7812     1
 7031  7810  7811     1
 7032  7810  7812     1
 7033  7813  7814     1
 7034  7813  7815     1
 7035  7813  7814     1
 7036  7813  7815     1
 7037  7816  7817     1
 7038  7816  7818     1
 7039  7816  7817     1
 7040  7816  7818     1
 7041  7819  7820     1
 7042  7819  7821     1
 7043  7819  7820     1
 7044  7819  7821     1
 7045  7822  7823     1
 7046  7822  7824     1
 7047  7822  7823     1
 7048  7822  7824     1
 7049  7825  7826     1
 7050  7825  7827     1
 7051  7825  7826     1
 7052  7825  7827     1
 7053  7828  7829     1
 7054  7828  7830     1
 7055  7828  7829     1
 7056  7828  7830     1
 7057  7831  7832     1
 7058  7831  7833     1
 7059  7831  7832     1
 7060  7831  7833     1
 7061  7834  7835     1
 7062  7834  7836     1
 7063  7834  7835     1
 7064  7834  7836     1
 7065  7837  7838     1
 7066  7837  7839     1
 7067  7837  7838     1
 7068  7837  7839     1
 7069  7840  7841     1
 7070  7840  7842     1
 7071  7840  7841     1
 7072  7840  7842     1
 7073  7843  7844     1
 7074  7843  7845     1
 7075  7843  7844     1
 7076  7843  7845     1
 7077  7846  7847     1
 7078  7846  7848     1
 7079  7846  7847     1
 7080  7846  7848     1
 7081  7849  7850     1
 7082  7849  7851     1
 7083  7849  7850     1
 7084  7849  7851     1
 7085  7852  7853     1
 7086  7852  7854     1
 7087  7852  7853     1
 7088  7852  7854     1
 7089  7855  7856     1
 7090  7855  7857     1
 7091  7855  7856     1
 7092  7855  7857     1
 7093  7858  7859     1
 7094  7858  7860     1
 7095  7858  7859     1
 7096  7858  7860     1
 7097  7861  7862     1
 7098  7861  7863     1
 7099  7861  7862     1
 7100  7861  7863     1
 7101  7864  7865     1
 7102  7864  7866     1
 7103  7864  7865     1
 7104  7864  7866     1
 7105  7867  7868     1
 7106  7867  7869     1
 7107  7867  7868     1
 7108  7867  7869     1
 7109  7870  7871     1
 7110  7870  7872     1
 7111  7870  7871     1
 7112  7870  7872     1
 7113  7873  7874     1
 7114  7873  7875     1
 7115  7873  7874     1
 7116  7873  7875     1
 7117  7876  7877     1
 7118  7876  7878     1
 7119  7876  7877     1
 7120  7876  7878     1
 7121  7879  7880     1
 7122  7879  7881     1
 7123  7879  7880     1
 7124  7879  7881     1
 7125  7882  7883     1
 7126  7882  7884     1
 7127  7882  7883     1
 7128  7882  7884     1
 7129  7885  7886     1
 7130  7885  7887     1
 7131  7885  7886     1
 7132  7885  7887     1
 7133  7888  7889     1
 7134  7888  7890     1
 7135  7888  7889     1
 7136  7888  7890     1
 7137  7891  7892     1
 7138  7891  7893     1
 7139  7891  7892     1
 7140  7891  7893     1
 7141  7894  7895     1
 7142  7894  7896     1
 7143  7894  7895     1
 7144  7894  7896     1
 7145  7897  7898     1
 7146  7897  7899     1
 7147  7897  7898     1
 7148  7897  7899     1
 7149  7900  7901     1
 7150  7900  7902     1
 7151  7900  7901     1
 7152  7900  7902     1
 7153  7903  7904     1
 7154  7903  7905     1
 7155  7903  7904     1
 7156  7903  7905     1
 7157  7906  7907     1
 7158  7906  7908     1
 7159  7906  7907     1
 7160  7906  7908     1
 7161  7909  7910     1
 7162  7909  7911     1
 7163  7909  7910     1
 7164  7909  7911     1
 7165  7912  7913     1
 7166  7912  7914     1
 7167  7912  7913     1
 7168  7912  7914     1
 7169  7915  7916     1
 7170  7915  7917     1
 7171  7915  7916     1
 7172  7915  7917     1
 7173  7918  7919     1
 7174  7918  7920     1
 7175  7918  7919     1
 7176  7918  7920     1
 7177  7921  7922     1
 7178  7921  7923     1
 7179  7921  7922     1
 7180  7921  7923     1
 7181  7924  7925     1
 7182  7924  7926     1
 7183  7924  7925     1
 7184  7924  7926     1
 7185  7927  7928     1
 7186  7927  7929     1
 7187  7927  7928     1
 7188  7927  7929     1
 7189  7930  7931     1
 7190  7930  7932     1
 7191  7930  7931     1
 7192  7930  7932     1
 7193  7933  7934     1
 7194  7933  7935     1
 7195  7933  7934     1
 7196  7933  7935     1
 7197  7936  7937     1
 7198  7936  7938     1
 7199  7936  7937     1
 7200  7936  7938     1
 7201  7939  7940     1
 7202  7939  7941     1
 7203  7939  7940     1
 7204  7939  7941     1
 7205  7942  7943     1
 7206  7942  7944     1
 7207  7942  7943     1
 7208  7942  7944     1
 7209  7945  7946     1
 7210  7945  7947     1
 7211  7945  7946     1
 7212  7945  7947     1
 7213  7948  7949     1
 7214  7948  7950     1
 7215  7948  7949     1
 7216  7948  7950     1
 7217  7951  7952     1
 7218  7951  7953     1
 7219  7951  7952     1
 7220  7951  7953     1
 7221  7954  7955     1
 7222  7954  7956     1
 7223  7954  7955     1
 7224  7954  7956     1
 7225  7957  7958     1
 7226  7957  7959     1
 7227  7957  7958     1
 7228  7957  7959     1
 7229  7960  7961     1
 7230  7960  7962     1
 7231  7960  7961     1
 7232  7960  7962     1
 7233  7963  7964     1
 7234  7963  7965     1
 7235  7963  7964     1
 7236  7963  7965     1
 7237  7966  7967     1
 7238  7966  7968     1
 7239  7966  7967     1
 7240  7966  7968     1
 7241  7969  7970     1
 7242  7969  7971     1
 7243  7969  7970     1
 7244  7969  7971     1
 7245  7972  7973     1
 7246  7972  7974     1
 7247  7972  7973     1
 7248  7972  7974     1
 7249  7975  7976     1
 7250  7975  7977     1
 7251  7975  7976     1
 7252  7975  7977     1
 7253  7978  7979     1
 7254  7978  7980     1
 7255  7978  7979     1
 7256  7978  7980     1
 7257  7981  7982     1
 7258  7981  7983     1
 7259  7981  7982     1
 7260  7981  7983     1
 7261  7984  7985     1
 7262  7984  7986     1
 7263  7984  7985     1
 7264  7984  7986     1
 7265  7987  7988     1
 7266  7987  7989     1
 7267  7987  7988     1
 7268  7987  7989     1
 7269  7990  7991     1
 7270  7990  7992     1
 7271  7990  7991     1
 7272  7990  7992     1
 7273  7993  7994     1
 7274  7993  7995     1
 7275  7993  7994     1
 7276  7993  7995     1
 7277  7996  7997     1
 7278  7996  7998     1
 7279  7996  7997     1
 7280  7996  7998     1
 7281  7999  8000     1
 7282  7999  8001     1
 7283  7999  8000     1
 7284  7999  8001     1
 7285  8002  8003     1
 7286  8002  8004     1
 7287  8002  8003     1
 7288  8002  8004     1
 7289  8005  8006     1
 7290  8005  8007     1
 7291  8005  8006     1
 7292  8005  8007     1
 7293  8008  8009     1
 7294  8008  8010     1
 7295  8008  8009     1
 7296  8008  8010     1
 7297  8011  8012     1
 7298  8011  8013     1
 7299  8011  8012     1
 7300  8011  8013     1
 7301  8014  8015     1
 7302  8014  8016     1
 7303  8014  8015     1
 7304  8014  8016     1
 7305  8017  8018     1
 7306  8017  8019     1
 7307  8017  8018     1
 7308  8017  8019     1
 7309  8020  8021     1
 7310  8020  8022     1
 7311  8020  8021     1
 7312  8020  8022     1
 7313  8023  8024     1
 7314  8023  8025     1
 7315  8023  8024     1
 7316  8023  8025     1
 7317  8026  8027     1
 7318  8026  8028     1
 7319  8026  8027     1
 7320  8026  8028     1
 7321  8029  8030     1
 7322  8029  8031     1
 7323  8029  8030     1
 7324  8029  8031     1
 7325  8032  8033     1
 7326  8032  8034     1
 7327  8032  8033     1
 7328  8032  8034     1
 7329  8035  8036     1
 7330  8035  8037     1
 7331  8035  8036     1
 7332  8035  8037     1
 7333  8038  8039     1
 7334  8038  8040     1
 7335  8038  8039     1
 7336  8038  8040     1
 7337  8041  8042     1
 7338  8041  8043     1
 7339  8041  8042     1
 7340  8041  8043     1
 7341  8044  8045     1
 7342  8044  8046     1
 7343  8044  8045     1
 7344  8044  8046     1
 7345  8047  8048     1
 7346  8047  8049     1
 7347  8047  8048     1
 7348  8047  8049     1
 7349  8050  8051     1
 7350  8050  8052     1
 7351  8050  8051     1
 7352  8050  8052     1
 7353  8053  8054     1
 7354  8053  8055     1
 7355  8053  8054     1
 7356  8053  8055     1
 7357  8056  8057     1
 7358  8056  8058     1
 7359  8056  8057     1
 7360  8056  8058     1
 7361  8059  8060     1
 7362  8059  8061     1
 7363  8059  8060     1
 7364  8059  8061     1
 7365  8062  8063     1
 7366  8062  8064     1
 7367  8062  8063     1
 7368  8062  8064     1
 7369  8065  8066     1
 7370  8065  8067     1
 7371  8065  8066     1
 7372  8065  8067     1
 7373  8068  8069     1
 7374  8068  8070     1
 7375  8068  8069     1
 7376  8068  8070     1
 7377  8071  8072     1
 7378  8071  8073     1
 7379  8071  8072     1
 7380  8071  8073     1
 7381  8074  8075     1
 7382  8074  8076     1
 7383  8074  8075     1
 7384  8074  8076     1
 7385  8077  8078     1
 7386  8077  8079     1
 7387  8077  8078     1
 7388  8077  8079     1
 7389  8080  8081     1
 7390  8080  8082     1
 7391  8080  8081     1
 7392  8080  8082     1
 7393  8083  8084     1
 7394  8083  8085     1
 7395  8083  8084     1
 7396  8083  8085     1
 7397  8086  8087     1
 7398  8086  8088     1
 7399  8086  8087     1
 7400  8086  8088     1
 7401  8089  8090     1
 7402  8089  8091     1
 7403  8089  8090     1
 7404  8089  8091     1
 7405  8092  8093     1
 7406  8092  8094     1
 7407  8092  8093     1
 7408  8092  8094     1
 7409  8095  8096     1
 7410  8095  8097     1
 7411  8095  8096     1
 7412  8095  8097     1
 7413  8098  8099     1
 7414  8098  8100     1
 7415  8098  8099     1
 7416  8098  8100     1
 7417  8101  8102     1
 7418  8101  8103     1
 7419  8101  8102     1
 7420  8101  8103     1
 7421  8104  8105     1
 7422  8104  8106     1
 7423  8104  8105     1
 7424  8104  8106     1
 7425  8107  8108     1
 7426  8107  8109     1
 7427  8107  8108     1
 7428  8107  8109     1
 7429  8110  8111     1
 7430  8110  8112     1
 7431  8110  8111     1
 7432  8110  8112     1
 7433  8113  8114     1
 7434  8113  8115     1
 7435  8113  8114     1
 7436  8113  8115     1
 7437  8116  8117     1
 7438  8116  8118     1
 7439  8116  8117     1
 7440  8116  8118     1
 7441  8119  8120     1
 7442  8119  8121     1
 7443  8119  8120     1
 7444  8119  8121     1
 7445  8122  8123     1
 7446  8122  8124     1
 7447  8122  8123     1
 7448  8122  8124     1
 7449  8125  8126     1
 7450  8125  8127     1
 7451  8125  8126     1
 7452  8125  8127     1
 7453  8128  8129     1
 7454  8128  8130     1
 7455  8128  8129     1
 7456  8128  8130     1
 7457  8131  8132     1
 7458  8131  8133     1
 7459  8131  8132     1
 7460  8131  8133     1
 7461  8134  8135     1
 7462  8134  8136     1
 7463  8134  8135     1
 7464  8134  8136     1
 7465  8137  8138     1
 7466  8137  8139     1
 7467  8137  8138     1
 7468  8137  8139     1
 7469  8140  8141     1
 7470  8140  8142     1
 7471  8140  8141     1
 7472  8140  8142     1
 7473  8143  8144     1
 7474  8143  8145     1
 7475  8143  8144     1
 7476  8143  8145     1
 7477  8146  8147     1
 7478  8146  8148     1
 7479  8146  8147     1
 7480  8146  8148     1
 7481  8149  8150     1
 7482  8149  8151     1
 7483  8149  8150     1
 7484  8149  8151     1
 7485  8152  8153     1
 7486  8152  8154     1
 7487  8152  8153     1
 7488  8152  8154     1
 7489  8155  8156     1
 7490  8155  8157     1
 7491  8155  8156     1
 7492  8155  8157     1
 7493  8158  8159     1
 7494  8158  8160     1
 7495  8158  8159     1
 7496  8158  8160     1
 7497  8161  8162     1
 7498  8161  8163     1
 7499  8161  8162     1
 7500  8161  8163     1
 7501  8164  8165     1
 7502  8164  8166     1
 7503  8164  8165     1
 7504  8164  8166     1
 7505  8167  8168     1
 7506  8167  8169     1
 7507  8167  8168     1
 7508  8167  8169     1
 7509  8170  8171     1
 7510  8170  8172     1
 7511  8170  8171     1
 7512  8170  8172     1
 7513  8173  8174     1
 7514  8173  8175     1
 7515  8173  8174     1
 7516  8173  8175     1
 7517  8176  8177     1
 7518  8176  8178     1
 7519  8176  8177     1
 7520  8176  8178     1
 7521  8179  8180     1
 7522  8179  8181     1
 7523  8179  8180     1
 7524  8179  8181     1
 7525  8182  8183     1
 7526  8182  8184     1
 7527  8182  8183     1
 7528  8182  8184     1
 7529  8185  8186     1
 7530  8185  8187     1
 7531  8185  8186     1
 7532  8185  8187     1
 7533  8188  8189     1
 7534  8188  8190     1
 7535  8188  8189     1
 7536  8188  8190     1
 7537  8191  8192     1
 7538  8191  8193     1
 7539  8191  8192     1
 7540  8191  8193     1
 7541  8194  8195     1
 7542  8194  8196     1
 7543  8194  8195     1
 7544  8194  8196     1
 7545  8197  8198     1
 7546  8197  8199     1
 7547  8197  8198     1
 7548  8197  8199     1
 7549  8200  8201     1
 7550  8200  8202     1
 7551  8200  8201     1
 7552  8200  8202     1
 7553  8203  8204     1
 7554  8203  8205     1
 7555  8203  8204     1
 7556  8203  8205     1
 7557  8206  8207     1
 7558  8206  8208     1
 7559  8206  8207     1
 7560  8206  8208     1
 7561  8209  8210     1
 7562  8209  8211     1
 7563  8209  8210     1
 7564  8209  8211     1
 7565  8212  8213     1
 7566  8212  8214     1
 7567  8212  8213     1
 7568  8212  8214     1
 7569  8215  8216     1
 7570  8215  8217     1
 7571  8215  8216     1
 7572  8215  8217     1
 7573  8218  8219     1
 7574  8218  8220     1
 7575  8218  8219     1
 7576  8218  8220     1
 7577  8221  8222     1
 7578  8221  8223     1
 7579  8221  8222     1
 7580  8221  8223     1
 7581  8224  8225     1
 7582  8224  8226     1
 7583  8224  8225     1
 7584  8224  8226     1
 7585  8227  8228     1
 7586  8227  8229     1
 7587  8227  8228     1
 7588  8227  8229     1
 7589  8230  8231     1
 7590  8230  8232     1
 7591  8230  8231     1
 7592  8230  8232     1
 7593  8233  8234     1
 7594  8233  8235     1
 7595  8233  8234     1
 7596  8233  8235     1
 7597  8236  8237     1
 7598  8236  8238     1
 7599  8236  8237     1
 7600  8236  8238     1
 7601  8239  8240     1
 7602  8239  8241     1
 7603  8239  8240     1
 7604  8239  8241     1
 7605  8242  8243     1
 7606  8242  8244     1
 7607  8242  8243     1
 7608  8242  8244     1
 7609  8245  8246     1
 7610  8245  8247     1
 7611  8245  8246     1
 7612  8245  8247     1
 7613  8248  8249     1
 7614  8248  8250     1
 7615  8248  8249     1
 7616  8248  8250     1
 7617  8251  8252     1
 7618  8251  8253     1
 7619  8251  8252     1
 7620  8251  8253     1
 7621  8254  8255     1
 7622  8254  8256     1
 7623  8254  8255     1
 7624  8254  8256     1
 7625  8257  8258     1
 7626  8257  8259     1
 7627  8257  8258     1
 7628  8257  8259     1
 7629  8260  8261     1
 7630  8260  8262     1
 7631  8260  8261     1
 7632  8260  8262     1
 7633  8263  8264     1
 7634  8263  8265     1
 7635  8263  8264     1
 7636  8263  8265     1
 7637  8266  8267     1
 7638  8266  8268     1
 7639  8266  8267     1
 7640  8266  8268     1
 7641  8269  8270     1
 7642  8269  8271     1
 7643  8269  8270     1
 7644  8269  8271     1
 7645  8272  8273     1
 7646  8272  8274     1
 7647  8272  8273     1
 7648  8272  8274     1
 7649  8275  8276     1
 7650  8275  8277     1
 7651  8275  8276     1
 7652  8275  8277     1
 7653  8278  8279     1
 7654  8278  8280     1
 7655  8278  8279     1
 7656  8278  8280     1
 7657  8281  8282     1
 7658  8281  8283     1
 7659  8281  8282     1
 7660  8281  8283     1
 7661  8284  8285     1
 7662  8284  8286     1
 7663  8284  8285     1
 7664  8284  8286     1
 7665  8287  8288     1
 7666  8287  8289     1
 7667  8287  8288     1
 7668  8287  8289     1
 7669  8290  8291     1
 7670  8290  8292     1
 7671  8290  8291     1
 7672  8290  8292     1
 7673  8293  8294     1
 7674  8293  8295     1
 7675  8293  8294     1
 7676  8293  8295     1
 7677  8296  8297     1
 7678  8296  8298     1
 7679  8296  8297     1
 7680  8296  8298     1
 7681  8299  8300     1
 7682  8299  8301     1
 7683  8299  8300     1
 7684  8299  8301     1
 7685  8302  8303     1
 7686  8302  8304     1
 7687  8302  8303     1
 7688  8302  8304     1
 7689  8305  8306     1
 7690  8305  8307     1
 7691  8305  8306     1
 7692  8305  8307     1
 7693  8308  8309     1
 7694  8308  8310     1
 7695  8308  8309     1
 7696  8308  8310     1
 7697  8311  8312     1
 7698  8311  8313     1
 7699  8311  8312     1
 7700  8311  8313     1
 7701  8314  8315     1
 7702  8314  8316     1
 7703  8314  8315     1
 7704  8314  8316     1
 7705  8317  8318     1
 7706  8317  8319     1
 7707  8317  8318     1
 7708  8317  8319     1
 7709  8320  8321     1
 7710  8320  8322     1
 7711  8320  8321     1
 7712  8320  8322     1
 7713  8323  8324     1
 7714  8323  8325     1
 7715  8323  8324     1
 7716  8323  8325     1
 7717  8326  8327     1
 7718  8326  8328     1
 7719  8326  8327     1
 7720  8326  8328     1
 7721  8329  8330     1
 7722  8329  8331     1
 7723  8329  8330     1
 7724  8329  8331     1
 7725  8332  8333     1
 7726  8332  8334     1
 7727  8332  8333     1
 7728  8332  8334     1
 7729  8335  8336     1
 7730  8335  8337     1
 7731  8335  8336     1
 7732  8335  8337     1
 7733  8338  8339     1
 7734  8338  8340     1
 7735  8338  8339     1
 7736  8338  8340     1
 7737  8341  8342     1
 7738  8341  8343     1
 7739  8341  8342     1
 7740  8341  8343     1
 7741  8344  8345     1
 7742  8344  8346     1
 7743  8344  8345     1
 7744  8344  8346     1
 7745  8347  8348     1
 7746  8347  8349     1
 7747  8347  8348     1
 7748  8347  8349     1
 7749  8350  8351     1
 7750  8350  8352     1
 7751  8350  8351     1
 7752  8350  8352     1
 7753  8353  8354     1
 7754  8353  8355     1
 7755  8353  8354     1
 7756  8353  8355     1
 7757  8356  8357     1
 7758  8356  8358     1
 7759  8356  8357     1
 7760  8356  8358     1
 7761  8359  8360     1
 7762  8359  8361     1
 7763  8359  8360     1
 7764  8359  8361     1
 7765  8362  8363     1
 7766  8362  8364     1
 7767  8362  8363     1
 7768  8362  8364     1
 7769  8365  8366     1
 7770  8365  8367     1
 7771  8365  8366     1
 7772  8365  8367     1
 7773  8368  8369     1
 7774  8368  8370     1
 7775  8368  8369     1
 7776  8368  8370     1
 7777  8371  8372     1
 7778  8371  8373     1
 7779  8371  8372     1
 7780  8371  8373     1
 7781  8374  8375     1
 7782  8374  8376     1
 7783  8374  8375     1
 7784  8374  8376     1
 7785  8377  8378     1
 7786  8377  8379     1
 7787  8377  8378     1
 7788  8377  8379     1
 7789  8380  8381     1
 7790  8380  8382     1
 7791  8380  8381     1
 7792  8380  8382     1
 7793  8383  8384     1
 7794  8383  8385     1
 7795  8383  8384     1
 7796  8383  8385     1
 7797  8386  8387     1
 7798  8386  8388     1
 7799  8386  8387     1
 7800  8386  8388     1
 7801  8389  8390     1
 7802  8389  8391     1
 7803  8389  8390     1
 7804  8389  8391     1
 7805  8392  8393     1
 7806  8392  8394     1
 7807  8392  8393     1
 7808  8392  8394     1
 7809  8395  8396     1
 7810  8395  8397     1
 7811  8395  8396     1
 7812  8395  8397     1
 7813  8398  8399     1
 7814  8398  8400     1
 7815  8398  8399     1
 7816  8398  8400     1
 7817  8401  8402     1
 7818  8401  8403     1
 7819  8401  8402     1
 7820  8401  8403     1
 7821  8404  8405     1
 7822  8404  8406     1
 7823  8404  8405     1
 7824  8404  8406     1
 7825  8407  8408     1
 7826  8407  8409     1
 7827  8407  8408     1
 7828  8407  8409     1
 7829  8410  8411     1
 7830  8410  8412     1
 7831  8410  8411     1
 7832  8410  8412     1
 7833  8413  8414     1
 7834  8413  8415     1
 7835  8413  8414     1
 7836  8413  8415     1
 7837  8416  8417     1
 7838  8416  8418     1
 7839  8416  8417     1
 7840  8416  8418     1
 7841  8419  8420     1
 7842  8419  8421     1
 7843  8419  8420     1
 7844  8419  8421     1
 7845  8422  8423     1
 7846  8422  8424     1
 7847  8422  8423     1
 7848  8422  8424     1
 7849  8425  8426     1
 7850  8425  8427     1
 7851  8425  8426     1
 7852  8425  8427     1
 7853  8428  8429     1
 7854  8428  8430     1
 7855  8428  8429     1
 7856  8428  8430     1
 7857  8431  8432     1
 7858  8431  8433     1
 7859  8431  8432     1
 7860  8431  8433     1
 7861  8434  8435     1
 7862  8434  8436     1
 7863  8434  8435     1
 7864  8434  8436     1
 7865  8437  8438     1
 7866  8437  8439     1
 7867  8437  8438     1
 7868  8437  8439     1
 7869  8440  8441     1
 7870  8440  8442     1
 7871  8440  8441     1
 7872  8440  8442     1
 7873  8443  8444     1
 7874  8443  8445     1
 7875  8443  8444     1
 7876  8443  8445     1
 7877  8446  8447     1
 7878  8446  8448     1
 7879  8446  8447     1
 7880  8446  8448     1
 7881  8449  8450     1
 7882  8449  8451     1
 7883  8449  8450     1
 7884  8449  8451     1
 7885  8452  8453     1
 7886  8452  8454     1
 7887  8452  8453     1
 7888  8452  8454     1
 7889  8455  8456     1
 7890  8455  8457     1
 7891  8455  8456     1
 7892  8455  8457     1
 7893  8458  8459     1
 7894  8458  8460     1
 7895  8458  8459     1
 7896  8458  8460     1
 7897  8461  8462     1
 7898  8461  8463     1
 7899  8461  8462     1
 7900  8461  8463     1
 7901  8464  8465     1
 7902  8464  8466     1
 7903  8464  8465     1
 7904  8464  8466     1
 7905  8467  8468     1
 7906  8467  8469     1
 7907  8467  8468     1
 7908  8467  8469     1
 7909  8470  8471     1
 7910  8470  8472     1
 7911  8470  8471     1
 7912  8470  8472     1
 7913  8473  8474     1
 7914  8473  8475     1
 7915  8473  8474     1
 7916  8473  8475     1
 7917  8476  8477     1
 7918  8476  8478     1
 7919  8476  8477     1
 7920  8476  8478     1
 7921  8479  8480     1
 7922  8479  8481     1
 7923  8479  8480     1
 7924  8479  8481     1
 7925  8482  8483     1
 7926  8482  8484     1
 7927  8482  8483     1
 7928  8482  8484     1
 7929  8485  8486     1
 7930  8485  8487     1
 7931  8485  8486     1
 7932  8485  8487     1
 7933  8488  8489     1
 7934  8488  8490     1
 7935  8488  8489     1
 7936  8488  8490     1
 7937  8491  8492     1
 7938  8491  8493     1
 7939  8491  8492     1
 7940  8491  8493     1
 7941  8494  8495     1
 7942  8494  8496     1
 7943  8494  8495     1
 7944  8494  8496     1
 7945  8497  8498     1
 7946  8497  8499     1
 7947  8497  8498     1
 7948  8497  8499     1
 7949  8500  8501     1
 7950  8500  8502     1
 7951  8500  8501     1
 7952  8500  8502     1
 7953  8503  8504     1
 7954  8503  8505     1
 7955  8503  8504     1
 7956  8503  8505     1
 7957  8506  8507     1
 7958  8506  8508     1
 7959  8506  8507     1
 7960  8506  8508     1
 7961  8509  8510     1
 7962  8509  8511     1
 7963  8509  8510     1
 7964  8509  8511     1
 7965  8512  8513     1
 7966  8512  8514     1
 7967  8512  8513     1
 7968  8512  8514     1
 7969  8515  8516     1
 7970  8515  8517     1
 7971  8515  8516     1
 7972  8515  8517     1
 7973  8518  8519     1
 7974  8518  8520     1
 7975  8518  8519     1
 7976  8518  8520     1
 7977  8521  8522     1
 7978  8521  8523     1
 7979  8521  8522     1
 7980  8521  8523     1
 7981  8524  8525     1
 7982  8524  8526     1
 7983  8524  8525     1
 7984  8524  8526     1
 7985  8527  8528     1
 7986  8527  8529     1
 7987  8527  8528     1
 7988  8527  8529     1
 7989  8530  8531     1
 7990  8530  8532     1
 7991  8530  8531     1
 7992  8530  8532     1
 7993  8533  8534     1
 7994  8533  8535     1
 7995  8533  8534     1
 7996  8533  8535     1
 7997  8536  8537     1
 7998  8536  8538     1
 7999  8536  8537     1
 8000  8536  8538     1
 8001  8539  8540     1
 8002  8539  8541     1
 8003  8539  8540     1
 8004  8539  8541     1
 8005  8542  8543     1
 8006  8542  8544     1
 8007  8542  8543     1
 8008  8542  8544     1
 8009  8545  8546     1
 8010  8545  8547     1
 8011  8545  8546     1
 8012  8545  8547     1
 8013  8548  8549     1
 8014  8548  8550     1
 8015  8548  8549     1
 8016  8548  8550     1
 8017  8551  8552     1
 8018  8551  8553     1
 8019  8551  8552     1
 8020  8551  8553     1
 8021  8554  8555     1
 8022  8554  8556     1
 8023  8554  8555     1
 8024  8554  8556     1
 8025  8557  8558     1
 8026  8557  8559     1
 8027  8557  8558     1
 8028  8557  8559     1
 8029  8560  8561     1
 8030  8560  8562     1
 8031  8560  8561     1
 8032  8560  8562     1
 8033  8563  8564     1
 8034  8563  8565     1
 8035  8563  8564     1
 8036  8563  8565     1
 8037  8566  8567     1
 8038  8566  8568     1
 8039  8566  8567     1
 8040  8566  8568     1
 8041  8569  8570     1
 8042  8569  8571     1
 8043  8569  8570     1
 8044  8569  8571     1
 8045  8572  8573     1
 8046  8572  8574     1
 8047  8572  8573     1
 8048  8572  8574     1
 8049  8575  8576     1
 8050  8575  8577     1
 8051  8575  8576     1
 8052  8575  8577     1
 8053  8578  8579     1
 8054  8578  8580     1
 8055  8578  8579     1
 8056  8578  8580     1
 8057  8581  8582     1
 8058  8581  8583     1
 8059  8581  8582     1
 8060  8581  8583     1
 8061  8584  8585     1
 8062  8584  8586     1
 8063  8584  8585     1
 8064  8584  8586     1
 8065  8587  8588     1
 8066  8587  8589     1
 8067  8587  8588     1
 8068  8587  8589     1
 8069  8590  8591     1
 8070  8590  8592     1
 8071  8590  8591     1
 8072  8590  8592     1
 8073  8593  8594     1
 8074  8593  8595     1
 8075  8593  8594     1
 8076  8593  8595     1
 8077  8596  8597     1
 8078  8596  8598     1
 8079  8596  8597     1
 8080  8596  8598     1
 8081  8599  8600     1
 8082  8599  8601     1
 8083  8599  8600     1
 8084  8599  8601     1
 8085  8602  8603     1
 8086  8602  8604     1
 8087  8602  8603     1
 8088  8602  8604     1
 8089  8605  8606     1
 8090  8605  8607     1
 8091  8605  8606     1
 8092  8605  8607     1
 8093  8608  8609     1
 8094  8608  8610     1
 8095  8608  8609     1
 8096  8608  8610     1
 8097  8611  8612     1
 8098  8611  8613     1
 8099  8611  8612     1
 8100  8611  8613     1
 8101  8614  8615     1
 8102  8614  8616     1
 8103  8614  8615     1
 8104  8614  8616     1
 8105  8617  8618     1
 8106  8617  8619     1
 8107  8617  8618     1
 8108  8617  8619     1
 8109  8620  8621     1
 8110  8620  8622     1
 8111  8620  8621     1
 8112  8620  8622     1
 8113  8623  8624     1
 8114  8623  8625     1
 8115  8623  8624     1
 8116  8623  8625     1
 8117  8626  8627     1
 8118  8626  8628     1
 8119  8626  8627     1
 8120  8626  8628     1
 8121  8629  8630     1
 8122  8629  8631     1
 8123  8629  8630     1
 8124  8629  8631     1
 8125  8632  8633     1
 8126  8632  8634     1
 8127  8632  8633     1
 8128  8632  8634     1
 8129  8635  8636     1
 8130  8635  8637     1
 8131  8635  8636     1
 8132  8635  8637     1
 8133  8638  8639     1
 8134  8638  8640     1
 8135  8638  8639     1
 8136  8638  8640     1
 8137  8641  8642     1
 8138  8641  8643     1
 8139  8641  8642     1
 8140  8641  8643     1
 8141  8644  8645     1
 8142  8644  8646     1
 8143  8644  8645     1
 8144  8644  8646     1
 8145  8647  8648     1
 8146  8647  8649     1
 8147  8647  8648     1
 8148  8647  8649     1
 8149  8650  8651     1
 8150  8650  8652     1
 8151  8650  8651     1
 8152  8650  8652     1
 8153  8653  8654     1
 8154  8653  8655     1
 8155  8653  8654     1
 8156  8653  8655     1
 8157  8656  8657     1
 8158  8656  8658     1
 8159  8656  8657     1
 8160  8656  8658     1
 8161  8659  8660     1
 8162  8659  8661     1
 8163  8659  8660     1
 8164  8659  8661     1
 8165  8662  8663     1
 8166  8662  8664     1
 8167  8662  8663     1
 8168  8662  8664     1
 8169  8665  8666     1
 8170  8665  8667     1
 8171  8665  8666     1
 8172  8665  8667     1
 8173  8668  8669     1
 8174  8668  8670     1
 8175  8668  8669     1
 8176  8668  8670     1
 8177  8671  8672     1
 8178  8671  8673     1
 8179  8671  8672     1
 8180  8671  8673     1
 8181  8674  8675     1
 8182  8674  8676     1
 8183  8674  8675     1
 8184  8674  8676     1
 8185  8677  8678     1
 8186  8677  8679     1
 8187  8677  8678     1
 8188  8677  8679     1
 8189  8680  8681     1
 8190  8680  8682     1
 8191  8680  8681     1
 8192  8680  8682     1
 8193  8683  8684     1
 8194  8683  8685     1
 8195  8683  8684     1
 8196  8683  8685     1
 8197  8686  8687     1
 8198  8686  8688     1
 8199  8686  8687     1
 8200  8686  8688     1
 8201  8689  8690     1
 8202  8689  8691     1
 8203  8689  8690     1
 8204  8689  8691     1
 8205  8692  8693     1
 8206  8692  8694     1
 8207  8692  8693     1
 8208  8692  8694     1
 8209  8695  8696     1
 8210  8695  8697     1
 8211  8695  8696     1
 8212  8695  8697     1
 8213  8698  8699     1
 8214  8698  8700     1
 8215  8698  8699     1
 8216  8698  8700     1
 8217  8701  8702     1
 8218  8701  8703     1
 8219  8701  8702     1
 8220  8701  8703     1
 8221  8704  8705     1
 8222  8704  8706     1
 8223  8704  8705     1
 8224  8704  8706     1
 8225  8707  8708     1
 8226  8707  8709     1
 8227  8707  8708     1
 8228  8707  8709     1
 8229  8710  8711     1
 8230  8710  8712     1
 8231  8710  8711     1
 8232  8710  8712     1
 8233  8713  8714     1
 8234  8713  8715     1
 8235  8713  8714     1
 8236  8713  8715     1
 8237  8716  8717     1
 8238  8716  8718     1
 8239  8716  8717     1
 8240  8716  8718     1
 8241  8719  8720     1
 8242  8719  8721     1
 8243  8719  8720     1
 8244  8719  8721     1
 8245  8722  8723     1
 8246  8722  8724     1
 8247  8722  8723     1
 8248  8722  8724     1
 8249  8725  8726     1
 8250  8725  8727     1
 8251  8725  8726     1
 8252  8725  8727     1
 8253  8728  8729     1
 8254  8728  8730     1
 8255  8728  8729     1
 8256  8728  8730     1
 8257  8731  8732     1
 8258  8731  8733     1
 8259  8731  8732     1
 8260  8731  8733     1
 8261  8734  8735     1
 8262  8734  8736     1
 8263  8734  8735     1
 8264  8734  8736     1
 8265  8737  8738     1
 8266  8737  8739     1
 8267  8737  8738     1
 8268  8737  8739     1
 8269  8740  8741     1
 8270  8740  8742     1
 8271  8740  8741     1
 8272  8740  8742     1
 8273  8743  8744     1
 8274  8743  8745     1
 8275  8743  8744     1
 8276  8743  8745     1
 8277  8746  8747     1
 8278  8746  8748     1
 8279  8746  8747     1
 8280  8746  8748     1
 8281  8749  8750     1
 8282  8749  8751     1
 8283  8749  8750     1
 8284  8749  8751     1
 8285  8752  8753     1
 8286  8752  8754     1
 8287  8752  8753     1
 8288  8752  8754     1
 8289  8755  8756     1
 8290  8755  8757     1
 8291  8755  8756     1
 8292  8755  8757     1
 8293  8758  8759     1
 8294  8758  8760     1
 8295  8758  8759     1
 8296  8758  8760     1
 8297  8761  8762     1
 8298  8761  8763     1
 8299  8761  8762     1
 8300  8761  8763     1
 8301  8764  8765     1
 8302  8764  8766     1
 8303  8764  8765     1
 8304  8764  8766     1
 8305  8767  8768     1
 8306  8767  8769     1
 8307  8767  8768     1
 8308  8767  8769     1
 8309  8770  8771     1
 8310  8770  8772     1
 8311  8770  8771     1
 8312  8770  8772     1
 8313  8773  8774     1
 8314  8773  8775     1
 8315  8773  8774     1
 8316  8773  8775     1
 8317  8776  8777     1
 8318  8776  8778     1
 8319  8776  8777     1
 8320  8776  8778     1
 8321  8779  8780     1
 8322  8779  8781     1
 8323  8779  8780     1
 8324  8779  8781     1
 8325  8782  8783     1
 8326  8782  8784     1
 8327  8782  8783     1
 8328  8782  8784     1
 8329  8785  8786     1
 8330  8785  8787     1
 8331  8785  8786     1
 8332  8785  8787     1
 8333  8788  8789     1
 8334  8788  8790     1
 8335  8788  8789     1
 8336  8788  8790     1
 8337  8791  8792     1
 8338  8791  8793     1
 8339  8791  8792     1
 8340  8791  8793     1
 8341  8794  8795     1
 8342  8794  8796     1
 8343  8794  8795     1
 8344  8794  8796     1
 8345  8797  8798     1
 8346  8797  8799     1
 8347  8797  8798     1
 8348  8797  8799     1
 8349  8800  8801     1
 8350  8800  8802     1
 8351  8800  8801     1
 8352  8800  8802     1
 8353  8803  8804     1
 8354  8803  8805     1
 8355  8803  8804     1
 8356  8803  8805     1
 8357  8806  8807     1
 8358  8806  8808     1
 8359  8806  8807     1
 8360  8806  8808     1
 8361  8809  8810     1
 8362  8809  8811     1
 8363  8809  8810     1
 8364  8809  8811     1
 8365  8812  8813     1
 8366  8812  8814     1
 8367  8812  8813     1
 8368  8812  8814     1
 8369  8815  8816     1
 8370  8815  8817     1
 8371  8815  8816     1
 8372  8815  8817     1
 8373  8818  8819     1
 8374  8818  8820     1
 8375  8818  8819     1
 8376  8818  8820     1
 8377  8821  8822     1
 8378  8821  8823     1
 8379  8821  8822     1
 8380  8821  8823     1
 8381  8824  8825     1
 8382  8824  8826     1
 8383  8824  8825     1
 8384  8824  8826     1
 8385  8827  8828     1
 8386  8827  8829     1
 8387  8827  8828     1
 8388  8827  8829     1
 8389  8830  8831     1
 8390  8830  8832     1
 8391  8830  8831     1
 8392  8830  8832     1
 8393  8833  8834     1
 8394  8833  8835     1
 8395  8833  8834     1
 8396  8833  8835     1
 8397  8836  8837     1
 8398  8836  8838     1
 8399  8836  8837     1
 8400  8836  8838     1
 8401  8839  8840     1
 8402  8839  8841     1
 8403  8839  8840     1
 8404  8839  8841     1
 8405  8842  8843     1
 8406  8842  8844     1
 8407  8842  8843     1
 8408  8842  8844     1
 8409  8845  8846     1
 8410  8845  8847     1
 8411  8845  8846     1
 8412  8845  8847     1
 8413  8848  8849     1
 8414  8848  8850     1
 8415  8848  8849     1
 8416  8848  8850     1
 8417  8851  8852     1
 8418  8851  8853     1
 8419  8851  8852     1
 8420  8851  8853     1
 8421  8854  8855     1
 8422  8854  8856     1
 8423  8854  8855     1
 8424  8854  8856     1
 8425  8857  8858     1
 8426  8857  8859     1
 8427  8857  8858     1
 8428  8857  8859     1
 8429  8860  8861     1
 8430  8860  8862     1
 8431  8860  8861     1
 8432  8860  8862     1
 8433  8863  8864     1
 8434  8863  8865     1
 8435  8863  8864     1
 8436  8863  8865     1
 8437  8866  8867     1
 8438  8866  8868     1
 8439  8866  8867     1
 8440  8866  8868     1
 8441  8869  8870     1
 8442  8869  8871     1
 8443  8869  8870     1
 8444  8869  8871     1
 8445  8872  8873     1
 8446  8872  8874     1
 8447  8872  8873     1
 8448  8872  8874     1
 8449  8875  8876     1
 8450  8875  8877     1
 8451  8875  8876     1
 8452  8875  8877     1
 8453  8878  8879     1
 8454  8878  8880     1
 8455  8878  8879     1
 8456  8878  8880     1
 8457  8881  8882     1
 8458  8881  8883     1
 8459  8881  8882     1
 8460  8881  8883     1
 8461  8884  8885     1
 8462  8884  8886     1
 8463  8884  8885     1
 8464  8884  8886     1
 8465  8887  8888     1
 8466  8887  8889     1
 8467  8887  8888     1
 8468  8887  8889     1
 8469  8890  8891     1
 8470  8890  8892     1
 8471  8890  8891     1
 8472  8890  8892     1
 8473  8893  8894     1
 8474  8893  8895     1
 8475  8893  8894     1
 8476  8893  8895     1
 8477  8896  8897     1
 8478  8896  8898     1
 8479  8896  8897     1
 8480  8896  8898     1
 8481  8899  8900     1
 8482  8899  8901     1
 8483  8899  8900     1
 8484  8899  8901     1
 8485  8902  8903     1
 8486  8902  8904     1
 8487  8902  8903     1
 8488  8902  8904     1
 8489  8905  8906     1
 8490  8905  8907     1
 8491  8905  8906     1
 8492  8905  8907     1
 8493  8908  8909     1
 8494  8908  8910     1
 8495  8908  8909     1
 8496  8908  8910     1
 8497  8911  8912     1
 8498  8911  8913     1
 8499  8911  8912     1
 8500  8911  8913     1
 8501  8914  8915     1
 8502  8914  8916     1
 8503  8914  8915     1
 8504  8914  8916     1
 8505  8917  8918     1
 8506  8917  8919     1
 8507  8917  8918     1
 8508  8917  8919     1
 8509  8920  8921     1
 8510  8920  8922     1
 8511  8920  8921     1
 8512  8920  8922     1
 8513  8923  8924     1
 8514  8923  8925     1
 8515  8923  8924     1
 8516  8923  8925     1
 8517  8926  8927     1
 8518  8926  8928     1
 8519  8926  8927     1
 8520  8926  8928     1
 8521  8929  8930     1
 8522  8929  8931     1
 8523  8929  8930     1
 8524  8929  8931     1
 8525  8932  8933     1
 8526  8932  8934     1
 8527  8932  8933     1
 8528  8932  8934     1
 8529  8935  8936     1
 8530  8935  8937     1
 8531  8935  8936     1
 8532  8935  8937     1
 8533  8938  8939     1
 8534  8938  8940     1
 8535  8938  8939     1
 8536  8938  8940     1
 8537  8941  8942     1
 8538  8941  8943     1
 8539  8941  8942     1
 8540  8941  8943     1
 8541  8944  8945     1
 8542  8944  8946     1
 8543  8944  8945     1
 8544  8944  8946     1
 8545  8947  8948     1
 8546  8947  8949     1
 8547  8947  8948     1
 8548  8947  8949     1
 8549  8950  8951     1
 8550  8950  8952     1
 8551  8950  8951     1
 8552  8950  8952     1
 8553  8953  8954     1
 8554  8953  8955     1
 8555  8953  8954     1
 8556  8953  8955     1
 8557  8956  8957     1
 8558  8956  8958     1
 8559  8956  8957     1
 8560  8956  8958     1
 8561  8959  8960     1
 8562  8959  8961     1
 8563  8959  8960     1
 8564  8959  8961     1
 8565  8962  8963     1
 8566  8962  8964     1
 8567  8962  8963     1
 8568  8962  8964     1
 8569  8965  8966     1
 8570  8965  8967     1
 8571  8965  8966     1
 8572  8965  8967     1
 8573  8968  8969     1
 8574  8968  8970     1
 8575  8968  8969     1
 8576  8968  8970     1
 8577  8971  8972     1
 8578  8971  8973     1
 8579  8971  8972     1
 8580  8971  8973     1
 8581  8974  8975     1
 8582  8974  8976     1
 8583  8974  8975     1
 8584  8974  8976     1
 8585  8977  8978     1
 8586  8977  8979     1
 8587  8977  8978     1
 8588  8977  8979     1
 8589  8980  8981     1
 8590  8980  8982     1
 8591  8980  8981     1
 8592  8980  8982     1
 8593  8983  8984     1
 8594  8983  8985     1
 8595  8983  8984     1
 8596  8983  8985     1
 8597  8986  8987     1
 8598  8986  8988     1
 8599  8986  8987     1
 8600  8986  8988     1
 8601  8989  8990     1
 8602  8989  8991     1
 8603  8989  8990     1
 8604  8989  8991     1
 8605  8992  8993     1
 8606  8992  8994     1
 8607  8992  8993     1
 8608  8992  8994     1
 8609  8995  8996     1
 8610  8995  8997     1
 8611  8995  8996     1
 8612  8995  8997     1
 8613  8998  8999     1
 8614  8998  9000     1
 8615  8998  8999     1
 8616  8998  9000     1
 8617  9001  9002     1
 8618  9001  9003     1
 8619  9001  9002     1
 8620  9001  9003     1
 8621  9004  9005     1
 8622  9004  9006     1
 8623  9004  9005     1
 8624  9004  9006     1
 8625  9007  9008     1
 8626  9007  9009     1
 8627  9007  9008     1
 8628  9007  9009     1
 8629  9010  9011     1
 8630  9010  9012     1
 8631  9010  9011     1
 8632  9010  9012     1
 8633  9013  9014     1
 8634  9013  9015     1
 8635  9013  9014     1
 8636  9013  9015     1
 8637  9016  9017     1
 8638  9016  9018     1
 8639  9016  9017     1
 8640  9016  9018     1
 8641  9019  9020     1
 8642  9019  9021     1
 8643  9019  9020     1
 8644  9019  9021     1
 8645  9022  9023     1
 8646  9022  9024     1
 8647  9022  9023     1
 8648  9022  9024     1
 8649  9025  9026     1
 8650  9025  9027     1
 8651  9025  9026     1
 8652  9025  9027     1
 8653  9028  9029     1
 8654  9028  9030     1
 8655  9028  9029     1
 8656  9028  9030     1
 8657  9031  9032     1
 8658  9031  9033     1
 8659  9031  9032     1
 8660  9031  9033     1
 8661  9034  9035     1
 8662  9034  9036     1
 8663  9034  9035     1
 8664  9034  9036     1
 8665  9037  9038     1
 8666  9037  9039     1
 8667  9037  9038     1
 8668  9037  9039     1
 8669  9040  9041     1
 8670  9040  9042     1
 8671  9040  9041     1
 8672  9040  9042     1
 8673  9043  9044     1
 8674  9043  9045     1
 8675  9043  9044     1
 8676  9043  9045     1
 8677  9046  9047     1
 8678  9046  9048     1
 8679  9046  9047     1
 8680  9046  9048     1
 8681  9049  9050     1
 8682  9049  9051     1
 8683  9049  9050     1
 8684  9049  9051     1
 8685  9052  9053     1
 8686  9052  9054     1
 8687  9052  9053     1
 8688  9052  9054     1
 8689  9055  9056     1
 8690  9055  9057     1
 8691  9055  9056     1
 8692  9055  9057     1
 8693  9058  9059     1
 8694  9058  9060     1
 8695  9058  9059     1
 8696  9058  9060     1
 8697  9061  9062     1
 8698  9061  9063     1
 8699  9061  9062     1
 8700  9061  9063     1
 8701  9064  9065     1
 8702  9064  9066     1
 8703  9064  9065     1
 8704  9064  9066     1
 8705  9067  9068     1
 8706  9067  9069     1
 8707  9067  9068     1
 8708  9067  9069     1
 8709  9070  9071     1
 8710  9070  9072     1
 8711  9070  9071     1
 8712  9070  9072     1
 8713  9073  9074     1
 8714  9073  9075     1
 8715  9073  9074     1
 8716  9073  9075     1
 8717  9076  9077     1
 8718  9076  9078     1
 8719  9076  9077     1
 8720  9076  9078     1
 8721  9079  9080     1
 8722  9079  9081     1
 8723  9079  9080     1
 8724  9079  9081     1
 8725  9082  9083     1
 8726  9082  9084     1
 8727  9082  9083     1
 8728  9082  9084     1
 8729  9085  9086     1
 8730  9085  9087     1
 8731  9085  9086     1
 8732  9085  9087     1
 8733  9088  9089     1
 8734  9088  9090     1
 8735  9088  9089     1
 8736  9088  9090     1
 8737  9091  9092     1
 8738  9091  9093     1
 8739  9091  9092     1
 8740  9091  9093     1
 8741  9094  9095     1
 8742  9094  9096     1
 8743  9094  9095     1
 8744  9094  9096     1
 8745  9097  9098     1
 8746  9097  9099     1
 8747  9097  9098     1
 8748  9097  9099     1
 8749  9100  9101     1
 8750  9100  9102     1
 8751  9100  9101     1
 8752  9100  9102     1
 8753  9103  9104     1
 8754  9103  9105     1
 8755  9103  9104     1
 8756  9103  9105     1
 8757  9106  9107     1
 8758  9106  9108     1
 8759  9106  9107     1
 8760  9106  9108     1
 8761  9109  9110     1
 8762  9109  9111     1
 8763  9109  9110     1
 8764  9109  9111     1
 8765  9112  9113     1
 8766  9112  9114     1
 8767  9112  9113     1
 8768  9112  9114     1
 8769  9115  9116     1
 8770  9115  9117     1
 8771  9115  9116     1
 8772  9115  9117     1
 8773  9118  9119     1
 8774  9118  9120     1
 8775  9118  9119     1
 8776  9118  9120     1
 8777  9121  9122     1
 8778  9121  9123     1
 8779  9121  9122     1
 8780  9121  9123     1
 8781  9124  9125     1
 8782  9124  9126     1
 8783  9124  9125     1
 8784  9124  9126     1
 8785  9127  9128     1
 8786  9127  9129     1
 8787  9127  9128     1
 8788  9127  9129     1
 8789  9130  9131     1
 8790  9130  9132     1
 8791  9130  9131     1
 8792  9130  9132     1
 8793  9133  9134     1
 8794  9133  9135     1
 8795  9133  9134     1
 8796  9133  9135     1
 8797  9136  9137     1
 8798  9136  9138     1
 8799  9136  9137     1
 8800  9136  9138     1
 8801  9139  9140     1
 8802  9139  9141     1
 8803  9139  9140     1
 8804  9139  9141     1
 8805  9142  9143     1
 8806  9142  9144     1
 8807  9142  9143     1
 8808  9142  9144     1
 8809  9145  9146     1
 8810  9145  9147     1
 8811  9145  9146     1
 8812  9145  9147     1
 8813  9148  9149     1
 8814  9148  9150     1
 8815  9148  9149     1
 8816  9148  9150     1
 8817  9151  9152     1
 8818  9151  9153     1
 8819  9151  9152     1
 8820  9151  9153     1
 8821  9154  9155     1
 8822  9154  9156     1
 8823  9154  9155     1
 8824  9154  9156     1
 8825  9157  9158     1
 8826  9157  9159     1
 8827  9157  9158     1
 8828  9157  9159     1
 8829  9160  9161     1
 8830  9160  9162     1
 8831  9160  9161     1
 8832  9160  9162     1
 8833  9163  9164     1
 8834  9163  9165     1
 8835  9163  9164     1
 8836  9163  9165     1
 8837  9166  9167     1
 8838  9166  9168     1
 8839  9166  9167     1
 8840  9166  9168     1
 8841  9169  9170     1
 8842  9169  9171     1
 8843  9169  9170     1
 8844  9169  9171     1
 8845  9172  9173     1
 8846  9172  9174     1
 8847  9172  9173     1
 8848  9172  9174     1
 8849  9175  9176     1
 8850  9175  9177     1
 8851  9175  9176     1
 8852  9175  9177     1
 8853  9178  9179     1
 8854  9178  9180     1
 8855  9178  9179     1
 8856  9178  9180     1
 8857  9181  9182     1
 8858  9181  9183     1
 8859  9181  9182     1
 8860  9181  9183     1
 8861  9184  9185     1
 8862  9184  9186     1
 8863  9184  9185     1
 8864  9184  9186     1
 8865  9187  9188     1
 8866  9187  9189     1
 8867  9187  9188     1
 8868  9187  9189     1
 8869  9190  9191     1
 8870  9190  9192     1
 8871  9190  9191     1
 8872  9190  9192     1
 8873  9193  9194     1
 8874  9193  9195     1
 8875  9193  9194     1
 8876  9193  9195     1
 8877  9196  9197     1
 8878  9196  9198     1
 8879  9196  9197     1
 8880  9196  9198     1
 8881  9199  9200     1
 8882  9199  9201     1
 8883  9199  9200     1
 8884  9199  9201     1
 8885  9202  9203     1
 8886  9202  9204     1
 8887  9202  9203     1
 8888  9202  9204     1
 8889  9205  9206     1
 8890  9205  9207     1
 8891  9205  9206     1
 8892  9205  9207     1
 8893  9208  9209     1
 8894  9208  9210     1
 8895  9208  9209     1
 8896  9208  9210     1
 8897  9211  9212     1
 8898  9211  9213     1
 8899  9211  9212     1
 8900  9211  9213     1
 8901  9214  9215     1
 8902  9214  9216     1
 8903  9214  9215     1
 8904  9214  9216     1
 8905  9217  9218     1
 8906  9217  9219     1
 8907  9217  9218     1
 8908  9217  9219     1
 8909  9220  9221     1
 8910  9220  9222     1
 8911  9220  9221     1
 8912  9220  9222     1
 8913  9223  9224     1
 8914  9223  9225     1
 8915  9223  9224     1
 8916  9223  9225     1
 8917  9226  9227     1
 8918  9226  9228     1
 8919  9226  9227     1
 8920  9226  9228     1
 8921  9229  9230     1
 8922  9229  9231     1
 8923  9229  9230     1
 8924  9229  9231     1
 8925  9232  9233     1
 8926  9232  9234     1
 8927  9232  9233     1
 8928  9232  9234     1
 8929  9235  9236     1
 8930  9235  9237     1
 8931  9235  9236     1
 8932  9235  9237     1
 8933  9238  9239     1
 8934  9238  9240     1
 8935  9238  9239     1
 8936  9238  9240     1
 8937  9241  9242     1
 8938  9241  9243     1
 8939  9241  9242     1
 8940  9241  9243     1
 8941  9244  9245     1
 8942  9244  9246     1
 8943  9244  9245     1
 8944  9244  9246     1
 8945  9247  9248     1
 8946  9247  9249     1
 8947  9247  9248     1
 8948  9247  9249     1
 8949  9250  9251     1
 8950  9250  9252     1
 8951  9250  9251     1
 8952  9250  9252     1
 8953  9253  9254     1
 8954  9253  9255     1
 8955  9253  9254     1
 8956  9253  9255     1
 8957  9256  9257     1
 8958  9256  9258     1
 8959  9256  9257     1
 8960  9256  9258     1
 8961  9259  9260     1
 8962  9259  9261     1
 8963  9259  9260     1
 8964  9259  9261     1
 8965  9262  9263     1
 8966  9262  9264     1
 8967  9262  9263     1
 8968  9262  9264     1
 8969  9265  9266     1
 8970  9265  9267     1
 8971  9265  9266     1
 8972  9265  9267     1
 8973  9268  9269     1
 8974  9268  9270     1
 8975  9268  9269     1
 8976  9268  9270     1
 8977  9271  9272     1
 8978  9271  9273     1
 8979  9271  9272     1
 8980  9271  9273     1
 8981  9274  9275     1
 8982  9274  9276     1
 8983  9274  9275     1
 8984  9274  9276     1
 8985  9277  9278     1
 8986  9277  9279     1
 8987  9277  9278     1
 8988  9277  9279     1
 8989  9280  9281     1
 8990  9280  9282     1
 8991  9280  9281     1
 8992  9280  9282     1
 8993  9283  9284     1
 8994  9283  9285     1
 8995  9283  9284     1
 8996  9283  9285     1
 8997  9286  9287     1
 8998  9286  9288     1
 8999  9286  9287     1
 9000  9286  9288     1
 9001  9289  9290     1
 9002  9289  9291     1
 9003  9289  9290     1
 9004  9289  9291     1
 9005  9292  9293     1
 9006  9292  9294     1
 9007  9292  9293     1
 9008  9292  9294     1
 9009  9295  9296     1
 9010  9295  9297     1
 9011  9295  9296     1
 9012  9295  9297     1
 9013  9298  9299     1
 9014  9298  9300     1
 9015  9298  9299     1
 9016  9298  9300     1
 9017  9301  9302     1
 9018  9301  9303     1
 9019  9301  9302     1
 9020  9301  9303     1
 9021  9304  9305     1
 9022  9304  9306     1
 9023  9304  9305     1
 9024  9304  9306     1
 9025  9307  9308     1
 9026  9307  9309     1
 9027  9307  9308     1
 9028  9307  9309     1
 9029  9310  9311     1
 9030  9310  9312     1
 9031  9310  9311     1
 9032  9310  9312     1
 9033  9313  9314     1
 9034  9313  9315     1
 9035  9313  9314     1
 9036  9313  9315     1
 9037  9316  9317     1
 9038  9316  9318     1
 9039  9316  9317     1
 9040  9316  9318     1
 9041  9319  9320     1
 9042  9319  9321     1
 9043  9319  9320     1
 9044  9319  9321     1
 9045  9322  9323     1
 9046  9322  9324     1
 9047  9322  9323     1
 9048  9322  9324     1
 9049  9325  9326     1
 9050  9325  9327     1
 9051  9325  9326     1
 9052  9325  9327     1
 9053  9328  9329     1
 9054  9328  9330     1
 9055  9328  9329     1
 9056  9328  9330     1
 9057  9331  9332     1
 9058  9331  9333     1
 9059  9331  9332     1
 9060  9331  9333     1
 9061  9334  9335     1
 9062  9334  9336     1
 9063  9334  9335     1
 9064  9334  9336     1
 9065  9337  9338     1
 9066  9337  9339     1
 9067  9337  9338     1
 9068  9337  9339     1
 9069  9340  9341     1
 9070  9340  9342     1
 9071  9340  9341     1
 9072  9340  9342     1
 9073  9343  9344     1
 9074  9343  9345     1
 9075  9343  9344     1
 9076  9343  9345     1
 9077  9346  9347     1
 9078  9346  9348     1
 9079  9346  9347     1
 9080  9346  9348     1
 9081  9349  9350     1
 9082  9349  9351     1
 9083  9349  9350     1
 9084  9349  9351     1
 9085  9352  9353     1
 9086  9352  9354     1
 9087  9352  9353     1
 9088  9352  9354     1
 9089  9355  9356     1
 9090  9355  9357     1
 9091  9355  9356     1
 9092  9355  9357     1
 9093  9358  9359     1
 9094  9358  9360     1
 9095  9358  9359     1
 9096  9358  9360     1
 9097  9361  9362     1
 9098  9361  9363     1
 9099  9361  9362     1
 9100  9361  9363     1
 9101  9364  9365     1
 9102  9364  9366     1
 9103  9364  9365     1
 9104  9364  9366     1
 9105  9367  9368     1
 9106  9367  9369     1
 9107  9367  9368     1
 9108  9367  9369     1
 9109  9370  9371     1
 9110  9370  9372     1
 9111  9370  9371     1
 9112  9370  9372     1
 9113  9373  9374     1
 9114  9373  9375     1
 9115  9373  9374     1
 9116  9373  9375     1
 9117  9376  9377     1
 9118  9376  9378     1
 9119  9376  9377     1
 9120  9376  9378     1
 9121  9379  9380     1
 9122  9379  9381     1
 9123  9379  9380     1
 9124  9379  9381     1
 9125  9382  9383     1
 9126  9382  9384     1
 9127  9382  9383     1
 9128  9382  9384     1
 9129  9385  9386     1
 9130  9385  9387     1
 9131  9385  9386     1
 9132  9385  9387     1
 9133  9388  9389     1
 9134  9388  9390     1
 9135  9388  9389     1
 9136  9388  9390     1
 9137  9391  9392     1
 9138  9391  9393     1
 9139  9391  9392     1
 9140  9391  9393     1
 9141  9394  9395     1
 9142  9394  9396     1
 9143  9394  9395     1
 9144  9394  9396     1
 9145  9397  9398     1
 9146  9397  9399     1
 9147  9397  9398     1
 9148  9397  9399     1
 9149  9400  9401     1
 9150  9400  9402     1
 9151  9400  9401     1
 9152  9400  9402     1
 9153  9403  9404     1
 9154  9403  9405     1
 9155  9403  9404     1
 9156  9403  9405     1
 9157  9406  9407     1
 9158  9406  9408     1
 9159  9406  9407     1
 9160  9406  9408     1
 9161  9409  9410     1
 9162  9409  9411     1
 9163  9409  9410     1
 9164  9409  9411     1
 9165  9412  9413     1
 9166  9412  9414     1
 9167  9412  9413     1
 9168  9412  9414     1
 9169  9415  9416     1
 9170  9415  9417     1
 9171  9415  9416     1
 9172  9415  9417     1
 9173  9418  9419     1
 9174  9418  9420     1
 9175  9418  9419     1
 9176  9418  9420     1
 9177  9421  9422     1
 9178  9421  9423     1
 9179  9421  9422     1
 9180  9421  9423     1
 9181  9424  9425     1
 9182  9424  9426     1
 9183  9424  9425     1
 9184  9424  9426     1
 9185  9427  9428     1
 9186  9427  9429     1
 9187  9427  9428     1
 9188  9427  9429     1
 9189  9430  9431     1
 9190  9430  9432     1
 9191  9430  9431     1
 9192  9430  9432     1
 9193  9433  9434     1
 9194  9433  9435     1
 9195  9433  9434     1
 9196  9433  9435     1
 9197  9436  9437     1
 9198  9436  9438     1
 9199  9436  9437     1
 9200  9436  9438     1
 9201  9439  9440     1
 9202  9439  9441     1
 9203  9439  9440     1
 9204  9439  9441     1
 9205  9442  9443     1
 9206  9442  9444     1
 9207  9442  9443     1
 9208  9442  9444     1
 9209  9445  9446     1
 9210  9445  9447     1
 9211  9445  9446     1
 9212  9445  9447     1
 9213  9448  9449     1
 9214  9448  9450     1
 9215  9448  9449     1
 9216  9448  9450     1
 9217  9451  9452     1
 9218  9451  9453     1
 9219  9451  9452     1
 9220  9451  9453     1
 9221  9454  9455     1
 9222  9454  9456     1
 9223  9454  9455     1
 9224  9454  9456     1
 9225  9457  9458     1
 9226  9457  9459     1
 9227  9457  9458     1
 9228  9457  9459     1
 9229  9460  9461     1
 9230  9460  9462     1
 9231  9460  9461     1
 9232  9460  9462     1
 9233  9463  9464     1
 9234  9463  9465     1
 9235  9463  9464     1
 9236  9463  9465     1
 9237  9466  9467     1
 9238  9466  9468     1
 9239  9466  9467     1
 9240  9466  9468     1
 9241  9469  9470     1
 9242  9469  9471     1
 9243  9469  9470     1
 9244  9469  9471     1
 9245  9472  9473     1
 9246  9472  9474     1
 9247  9472  9473     1
 9248  9472  9474     1
 9249  9475  9476     1
 9250  9475  9477     1
 9251  9475  9476     1
 9252  9475  9477     1
 9253  9478  9479     1
 9254  9478  9480     1
 9255  9478  9479     1
 9256  9478  9480     1
 9257  9481  9482     1
 9258  9481  9483     1
 9259  9481  9482     1
 9260  9481  9483     1
 9261  9484  9485     1
 9262  9484  9486     1
 9263  9484  9485     1
 9264  9484  9486     1
 9265  9487  9488     1
 9266  9487  9489     1
 9267  9487  9488     1
 9268  9487  9489     1
 9269  9490  9491     1
 9270  9490  9492     1
 9271  9490  9491     1
 9272  9490  9492     1
 9273  9493  9494     1
 9274  9493  9495     1
 9275  9493  9494     1
 9276  9493  9495     1
 9277  9496  9497     1
 9278  9496  9498     1
 9279  9496  9497     1
 9280  9496  9498     1
 9281  9499  9500     1
 9282  9499  9501     1
 9283  9499  9500     1
 9284  9499  9501     1
 9285  9502  9503     1
 9286  9502  9504     1
 9287  9502  9503     1
 9288  9502  9504     1
 9289  9505  9506     1
 9290  9505  9507     1
 9291  9505  9506     1
 9292  9505  9507     1
 9293  9508  9509     1
 9294  9508  9510     1
 9295  9508  9509     1
 9296  9508  9510     1
 9297  9511  9512     1
 9298  9511  9513     1
 9299  9511  9512     1
 9300  9511  9513     1
 9301  9514  9515     1
 9302  9514  9516     1
 9303  9514  9515     1
 9304  9514  9516     1
 9305  9517  9518     1
 9306  9517  9519     1
 9307  9517  9518     1
 9308  9517  9519     1
 9309  9520  9521     1
 9310  9520  9522     1
 9311  9520  9521     1
 9312  9520  9522     1
 9313  9523  9524     1
 9314  9523  9525     1
 9315  9523  9524     1
 9316  9523  9525     1
 9317  9526  9527     1
 9318  9526  9528     1
 9319  9526  9527     1
 9320  9526  9528     1
 9321  9529  9530     1
 9322  9529  9531     1
 9323  9529  9530     1
 9324  9529  9531     1
 9325  9532  9533     1
 9326  9532  9534     1
 9327  9532  9533     1
 9328  9532  9534     1
 9329  9535  9536     1
 9330  9535  9537     1
 9331  9535  9536     1
 9332  9535  9537     1
 9333  9538  9539     1
 9334  9538  9540     1
 9335  9538  9539     1
 9336  9538  9540     1
 9337  9541  9542     1
 9338  9541  9543     1
 9339  9541  9542     1
 9340  9541  9543     1
 9341  9544  9545     1
 9342  9544  9546     1
 9343  9544  9545     1
 9344  9544  9546     1
 9345  9547  9548     1
 9346  9547  9549     1
 9347  9547  9548     1
 9348  9547  9549     1
 9349  9550  9551     1
 9350  9550  9552     1
 9351  9550  9551     1
 9352  9550  9552     1
 9353  9553  9554     1
 9354  9553  9555     1
 9355  9553  9554     1
 9356  9553  9555     1
 9357  9556  9557     1
 9358  9556  9558     1
 9359  9556  9557     1
 9360  9556  9558     1
 9361  9559  9560     1
 9362  9559  9561     1
 9363  9559  9560     1
 9364  9559  9561     1
 9365  9562  9563     1
 9366  9562  9564     1
 9367  9562  9563     1
 9368  9562  9564     1
 9369  9565  9566     1
 9370  9565  9567     1
 9371  9565  9566     1
 9372  9565  9567     1
 9373  9568  9569     1
 9374  9568  9570     1
 9375  9568  9569     1
 9376  9568  9570     1
 9377  9571  9572     1
 9378  9571  9573     1
 9379  9571  9572     1
 9380  9571  9573     1
 9381  9574  9575     1
 9382  9574  9576     1
 9383  9574  9575     1
 9384  9574  9576     1
 9385  9577  9578     1
 9386  9577  9579     1
 9387  9577  9578     1
 9388  9577  9579     1
 9389  9580  9581     1
 9390  9580  9582     1
 9391  9580  9581     1
 9392  9580  9582     1
 9393  9583  9584     1
 9394  9583  9585     1
 9395  9583  9584     1
 9396  9583  9585     1
 9397  9586  9587     1
 9398  9586  9588     1
 9399  9586  9587     1
 9400  9586  9588     1
 9401  9589  9590     1
 9402  9589  9591     1
 9403  9589  9590     1
 9404  9589  9591     1
 9405  9592  9593     1
 9406  9592  9594     1
 9407  9592  9593     1
 9408  9592  9594     1
 9409  9595  9596     1
 9410  9595  9597     1
 9411  9595  9596     1
 9412  9595  9597     1
 9413  9598  9599     1
 9414  9598  9600     1
 9415  9598  9599     1
 9416  9598  9600     1
 9417  9601  9602     1
 9418  9601  9603     1
 9419  9601  9602     1
 9420  9601  9603     1
 9421  9604  9605     1
 9422  9604  9606     1
 9423  9604  9605     1
 9424  9604  9606     1
 9425  9607  9608     1
 9426  9607  9609     1
 9427  9607  9608     1
 9428  9607  9609     1
 9429  9610  9611     1
 9430  9610  9612     1
 9431  9610  9611     1
 9432  9610  9612     1
 9433  9613  9614     1
 9434  9613  9615     1
 9435  9613  9614     1
 9436  9613  9615     1
 9437  9616  9617     1
 9438  9616  9618     1
 9439  9616  9617     1
 9440  9616  9618     1
 9441  9619  9620     1
 9442  9619  9621     1
 9443  9619  9620     1
 9444  9619  9621     1
 9445  9622  9623     1
 9446  9622  9624     1
 9447  9622  9623     1
 9448  9622  9624     1
 9449  9625  9626     1
 9450  9625  9627     1
 9451  9625  9626     1
 9452  9625  9627     1
 9453  9628  9629     1
 9454  9628  9630     1
 9455  9628  9629     1
 9456  9628  9630     1
 9457  9631  9632     1
 9458  9631  9633     1
 9459  9631  9632     1
 9460  9631  9633     1
 9461  9634  9635     1
 9462  9634  9636     1
 9463  9634  9635     1
 9464  9634  9636     1
 9465  9637  9638     1
 9466  9637  9639     1
 9467  9637  9638     1
 9468  9637  9639     1
 9469  9640  9641     1
 9470  9640  9642     1
 9471  9640  9641     1
 9472  9640  9642     1
 9473  9643  9644     1
 9474  9643  9645     1
 9475  9643  9644     1
 9476  9643  9645     1
 9477  9646  9647     1
 9478  9646  9648     1
 9479  9646  9647     1
 9480  9646  9648     1
 9481  9649  9650     1
 9482  9649  9651     1
 9483  9649  9650     1
 9484  9649  9651     1
 9485  9652  9653     1
 9486  9652  9654     1
 9487  9652  9653     1
 9488  9652  9654     1
 9489  9655  9656     1
 9490  9655  9657     1
 9491  9655  9656     1
 9492  9655  9657     1
 9493  9658  9659     1
 9494  9658  9660     1
 9495  9658  9659     1
 9496  9658  9660     1
 9497  9661  9662     1
 9498  9661  9663     1
 9499  9661  9662     1
 9500  9661  9663     1
 9501  9664  9665     1
 9502  9664  9666     1
 9503  9664  9665     1
 9504  9664  9666     1
 9505  9667  9668     1
 9506  9667  9669     1
 9507  9667  9668     1
 9508  9667  9669     1
 9509  9670  9671     1
 9510  9670  9672     1
 9511  9670  9671     1
 9512  9670  9672     1
 9513  9673  9674     1
 9514  9673  9675     1
 9515  9673  9674     1
 9516  9673  9675     1
 9517  9676  9677     1
 9518  9676  9678     1
 9519  9676  9677     1
 9520  9676  9678     1
 9521  9679  9680     1
 9522  9679  9681     1
 9523  9679  9680     1
 9524  9679  9681     1
 9525  9682  9683     1
 9526  9682  9684     1
 9527  9682  9683     1
 9528  9682  9684     1
 9529  9685  9686     1
 9530  9685  9687     1
 9531  9685  9686     1
 9532  9685  9687     1
 9533  9688  9689     1
 9534  9688  9690     1
 9535  9688  9689     1
 9536  9688  9690     1
 9537  9691  9692     1
 9538  9691  9693     1
 9539  9691  9692     1
 9540  9691  9693     1
 9541  9694  9695     1
 9542  9694  9696     1
 9543  9694  9695     1
 9544  9694  9696     1
 9545  9697  9698     1
 9546  9697  9699     1
 9547  9697  9698     1
 9548  9697  9699     1
 9549  9700  9701     1
 9550  9700  9702     1
 9551  9700  9701     1
 9552  9700  9702     1
 9553  9703  9704     1
 9554  9703  9705     1
 9555  9703  9704     1
 9556  9703  9705     1
 9557  9706  9707     1
 9558  9706  9708     1
 9559  9706  9707     1
 9560  9706  9708     1
 9561  9709  9710     1
 9562  9709  9711     1
 9563  9709  9710     1
 9564  9709  9711     1
 9565  9712  9713     1
 9566  9712  9714     1
 9567  9712  9713     1
 9568  9712  9714     1
 9569  9715  9716     1
 9570  9715  9717     1
 9571  9715  9716     1
 9572  9715  9717     1
 9573  9718  9719     1
 9574  9718  9720     1
 9575  9718  9719     1
 9576  9718  9720     1
 9577  9721  9722     1
 9578  9721  9723     1
 9579  9721  9722     1
 9580  9721  9723     1
 9581  9724  9725     1
 9582  9724  9726     1
 9583  9724  9725     1
 9584  9724  9726     1
 9585  9727  9728     1
 9586  9727  9729     1
 9587  9727  9728     1
 9588  9727  9729     1
 9589  9730  9731     1
 9590  9730  9732     1
 9591  9730  9731     1
 9592  9730  9732     1
 9593  9733  9734     1
 9594  9733  9735     1
 9595  9733  9734     1
 9596  9733  9735     1
 9597  9736  9737     1
 9598  9736  9738     1
 9599  9736  9737     1
 9600  9736  9738     1
 9601  9739  9740     1
 9602  9739  9741     1
 9603  9739  9740     1
 9604  9739  9741     1
 9605  9742  9743     1
 9606  9742  9744     1
 9607  9742  9743     1
 9608  9742  9744     1
 9609  9745  9746     1
 9610  9745  9747     1
 9611  9745  9746     1
 9612  9745  9747     1
 9613  9748  9749     1
 9614  9748  9750     1
 9615  9748  9749     1
 9616  9748  9750     1
 9617  9751  9752     1
 9618  9751  9753     1
 9619  9751  9752     1
 9620  9751  9753     1
 9621  9754  9755     1
 9622  9754  9756     1
 9623  9754  9755     1
 9624  9754  9756     1
 9625  9757  9758     1
 9626  9757  9759     1
 9627  9757  9758     1
 9628  9757  9759     1
 9629  9760  9761     1
 9630  9760  9762     1
 9631  9760  9761     1
 9632  9760  9762     1
 9633  9763  9764     1
 9634  9763  9765     1
 9635  9763  9764     1
 9636  9763  9765     1
 9637  9766  9767     1
 9638  9766  9768     1
 9639  9766  9767     1
 9640  9766  9768     1
 9641  9769  9770     1
 9642  9769  9771     1
 9643  9769  9770     1
 9644  9769  9771     1
 9645  9772  9773     1
 9646  9772  9774     1
 9647  9772  9773     1
 9648  9772  9774     1
 9649  9775  9776     1
 9650  9775  9777     1
 9651  9775  9776     1
 9652  9775  9777     1
 9653  9778  9779     1
 9654  9778  9780     1
 9655  9778  9779     1
 9656  9778  9780     1
 9657  9781  9782     1
 9658  9781  9783     1
 9659  9781  9782     1
 9660  9781  9783     1
 9661  9784  9785     1
 9662  9784  9786     1
 9663  9784  9785     1
 9664  9784  9786     1
 9665  9787  9788     1
 9666  9787  9789     1
 9667  9787  9788     1
 9668  9787  9789     1
 9669  9790  9791     1
 9670  9790  9792     1
 9671  9790  9791     1
 9672  9790  9792     1
 9673  9793  9794     1
 9674  9793  9795     1
 9675  9793  9794     1
 9676  9793  9795     1
 9677  9796  9797     1
 9678  9796  9798     1
 9679  9796  9797     1
 9680  9796  9798     1
 9681  9799  9800     1
 9682  9799  9801     1
 9683  9799  9800     1
 9684  9799  9801     1
 9685  9802  9803     1
 9686  9802  9804     1
 9687  9802  9803     1
 9688  9802  9804     1
 9689  9805  9806     1
 9690  9805  9807     1
 9691  9805  9806     1
 9692  9805  9807     1
 9693  9808  9809     1
 9694  9808  9810     1
 9695  9808  9809     1
 9696  9808  9810     1
 9697  9811  9812     1
 9698  9811  9813     1
 9699  9811  9812     1
 9700  9811  9813     1
 9701  9814  9815     1
 9702  9814  9816     1
 9703  9814  9815     1
 9704  9814  9816     1
 9705  9817  9818     1
 9706  9817  9819     1
 9707  9817  9818     1
 9708  9817  9819     1
 9709  9820  9821     1
 9710  9820  9822     1
 9711  9820  9821     1
 9712  9820  9822     1
 9713  9823  9824     1
 9714  9823  9825     1
 9715  9823  9824     1
 9716  9823  9825     1
 9717  9826  9827     1
 9718  9826  9828     1
 9719  9826  9827     1
 9720  9826  9828     1
 9721  9829  9830     1
 9722  9829  9831     1
 9723  9829  9830     1
 9724  9829  9831     1
 9725  9832  9833     1
 9726  9832  9834     1
 9727  9832  9833     1
 9728  9832  9834     1
 9729  9835  9836     1
 9730  9835  9837     1
 9731  9835  9836     1
 9732  9835  9837     1
 9733  9838  9839     1
 9734  9838  9840     1
 9735  9838  9839     1
 9736  9838  9840     1
 9737  9841  9842     1
 9738  9841  9843     1
 9739  9841  9842     1
 9740  9841  9843     1
 9741  9844  9845     1
 9742  9844  9846     1
 9743  9844  9845     1
 9744  9844  9846     1
 9745  9847  9848     1
 9746  9847  9849     1
 9747  9847  9848     1
 9748  9847  9849     1
 9749  9850  9851     1
 9750  9850  9852     1
 9751  9850  9851     1
 9752  9850  9852     1
 9753  9853  9854     1
 9754  9853  9855     1
 9755  9853  9854     1
 9756  9853  9855     1
 9757  9856  9857     1
 9758  9856  9858     1
 9759  9856  9857     1
 9760  9856  9858     1
 9761  9859  9860     1
 9762  9859  9861     1
 9763  9859  9860     1
 9764  9859  9861     1
 9765  9862  9863     1
 9766  9862  9864     1
 9767  9862  9863     1
 9768  9862  9864     1
 9769  9865  9866     1
 9770  9865  9867     1
 9771  9865  9866     1
 9772  9865  9867     1
 9773  9868  9869     1
 9774  9868  9870     1
 9775  9868  9869     1
 9776  9868  9870     1
 9777  9871  9872     1
 9778  9871  9873     1
 9779  9871  9872     1
 9780  9871  9873     1
 9781  9874  9875     1
 9782  9874  9876     1
 9783  9874  9875     1
 9784  9874  9876     1
 9785  9877  9878     1
 9786  9877  9879     1
 9787  9877  9878     1
 9788  9877  9879     1
 9789  9880  9881     1
 9790  9880  9882     1
 9791  9880  9881     1
 9792  9880  9882     1
 9793  9883  9884     1
 9794  9883  9885     1
 9795  9883  9884     1
 9796  9883  9885     1
 9797  9886  9887     1
 9798  9886  9888     1
 9799  9886  9887     1
 9800  9886  9888     1
 9801  9889  9890     1
 9802  9889  9891     1
 9803  9889  9890     1
 9804  9889  9891     1
 9805  9892  9893     1
 9806  9892  9894     1
 9807  9892  9893     1
 9808  9892  9894     1
 9809  9895  9896     1
 9810  9895  9897     1
 9811  9895  9896     1
 9812  9895  9897     1
 9813  9898  9899     1
 9814  9898  9900     1
 9815  9898  9899     1
 9816  9898  9900     1
 9817  9901  9902     1
 9818  9901  9903     1
 9819  9901  9902     1
 9820  9901  9903     1
 9821  9904  9905     1
 9822  9904  9906     1
 9823  9904  9905     1
 9824  9904  9906     1
 9825  9907  9908     1
 9826  9907  9909     1
 9827  9907  9908     1
 9828  9907  9909     1
 9829  9910  9911     1
 9830  9910  9912     1
 9831  9910  9911     1
 9832  9910  9912     1
 9833  9913  9914     1
 9834  9913  9915     1
 9835  9913  9914     1
 9836  9913  9915     1
 9837  9916  9917     1
 9838  9916  9918     1
 9839  9916  9917     1
 9840  9916  9918     1
 9841  9919  9920     1
 9842  9919  9921     1
 9843  9919  9920     1
 9844  9919  9921     1
 9845  9922  9923     1
 9846  9922  9924     1
 9847  9922  9923     1
 9848  9922  9924     1
 9849  9925  9926     1
 9850  9925  9927     1
 9851  9925  9926     1
 9852  9925  9927     1
 9853  9928  9929     1
 9854  9928  9930     1
 9855  9928  9929     1
 9856  9928  9930     1
 9857  9931  9932     1
 9858  9931  9933     1
 9859  9931  9932     1
 9860  9931  9933     1
 9861  9934  9935     1
 9862  9934  9936     1
 9863  9934  9935     1
 9864  9934  9936     1
 9865  9937  9938     1
 9866  9937  9939     1
 9867  9937  9938     1
 9868  9937  9939     1
 9869  9940  9941     1
 9870  9940  9942     1
 9871  9940  9941     1
 9872  9940  9942     1
 9873  9943  9944     1
 9874  9943  9945     1
 9875  9943  9944     1
 9876  9943  9945     1
 9877  9946  9947     1
 9878  9946  9948     1
 9879  9946  9947     1
 9880  9946  9948     1
 9881  9949  9950     1
 9882  9949  9951     1
 9883  9949  9950     1
 9884  9949  9951     1
 9885  9952  9953     1
 9886  9952  9954     1
 9887  9952  9953     1
 9888  9952  9954     1
 9889  9955  9956     1
 9890  9955  9957     1
 9891  9955  9956     1
 9892  9955  9957     1
 9893  9958  9959     1
 9894  9958  9960     1
 9895  9958  9959     1
 9896  9958  9960     1
 9897  9961  9962     1
 9898  9961  9963     1
 9899  9961  9962     1
 9900  9961  9963     1
 9901  9964  9965     1
 9902  9964  9966     1
 9903  9964  9965     1
 9904  9964  9966     1
 9905  9967  9968     1
 9906  9967  9969     1
 9907  9967  9968     1
 9908  9967  9969     1
 9909  9970  9971     1
 9910  9970  9972     1
 9911  9970  9971     1
 9912  9970  9972     1
 9913  9973  9974     1
 9914  9973  9975     1
 9915  9973  9974     1
 9916  9973  9975     1
 9917  9976  9977     1
 9918  9976  9978     1
 9919  9976  9977     1
 9920  9976  9978     1
 9921  9979  9980     1
 9922  9979  9981     1
 9923  9979  9980     1
 9924  9979  9981     1
 9925  9982  9983     1
 9926  9982  9984     1
 9927  9982  9983     1
 9928  9982  9984     1
 9929  9985  9986     1
 9930  9985  9987     1
 9931  9985  9986     1
 9932  9985  9987     1
 9933  9988  9989     1
 9934  9988  9990     1
 9935  9988  9989     1
 9936  9988  9990     1
 9937  9991  9992     1
 9938  9991  9993     1
 9939  9991  9992     1
 9940  9991  9993     1
 9941  9994  9995     1
 9942  9994  9996     1
 9943  9994  9995     1
 9944  9994  9996     1
 9945  9997  9998     1
 9946  9997  9999     1
 9947  9997  9998     1
 9948  9997  9999     1
 9949 10000 10001     1
 9950 10000 10002     1
 9951 10000 10001     1
 9952 10000 10002     1
 9953 10003 10004     1
 9954 10003 10005     1
 9955 10003 10004     1
 9956 10003 10005     1
 9957 10006 10007     1
 9958 10006 10008     1
 9959 10006 10007     1
 9960 10006 10008     1
 9961 10009 10010     1
 9962 10009 10011     1
 9963 10009 10010     1
 9964 10009 10011     1
 9965 10012 10013     1
 9966 10012 10014     1
 9967 10012 10013     1
 9968 10012 10014     1
 9969 10015 10016     1
 9970 10015 10017     1
 9971 10015 10016     1
 9972 10015 10017     1
 9973 10018 10019     1
 9974 10018 10020     1
 9975 10018 10019     1
 9976 10018 10020     1
 9977 10021 10022     1
 9978 10021 10023     1
 9979 10021 10022     1
 9980 10021 10023     1
 9981 10024 10025     1
 9982 10024 10026     1
 9983 10024 10025     1
 9984 10024 10026     1
 9985 10027 10028     1
 9986 10027 10029     1
 9987 10027 10028     1
 9988 10027 10029     1
 9989 10030 10031     1
 9990 10030 10032     1
 9991 10030 10031     1
 9992 10030 10032     1
 9993 10033 10034     1
 9994 10033 10035     1
 9995 10033 10034     1
 9996 10033 10035     1
 9997 10036 10037     1
 9998 10036 10038     1
 9999 10036 10037     1
10000 10036 10038     1
10001 10039 10040     1
10002 10039 10041     1
10003 10039 10040     1
10004 10039 10041     1
10005 10042 10043     1
10006 10042 10044     1
10007 10042 10043     1
10008 10042 10044     1
10009 10045 10046     1
10010 10045 10047     1
10011 10045 10046     1
10012 10045 10047     1
10013 10048 10049     1
10014 10048 10050     1
10015 10048 10049     1
10016 10048 10050     1
10017 10051 10052     1
10018 10051 10053     1
10019 10051 10052     1
10020 10051 10053     1
10021 10054 10055     1
10022 10054 10056     1
10023 10054 10055     1
10024 10054 10056     1
10025 10057 10058     1
10026 10057 10059     1
10027 10057 10058     1
10028 10057 10059     1
10029 10060 10061     1
10030 10060 10062     1
10031 10060 10061     1
10032 10060 10062     1
10033 10063 10064     1
10034 10063 10065     1
10035 10063 10064     1
10036 10063 10065     1
10037 10066 10067     1
10038 10066 10068     1
10039 10066 10067     1
10040 10066 10068     1
10041 10069 10070     1
10042 10069 10071     1
10043 10069 10070     1
10044 10069 10071     1
10045 10072 10073     1
10046 10072 10074     1
10047 10072 10073     1
10048 10072 10074     1
10049 10075 10076     1
10050 10075 10077     1
10051 10075 10076     1
10052 10075 10077     1
10053 10078 10079     1
10054 10078 10080     1
10055 10078 10079     1
10056 10078 10080     1
10057 10081 10082     1
10058 10081 10083     1
10059 10081 10082     1
10060 10081 10083     1
10061 10084 10085     1
10062 10084 10086     1
10063 10084 10085     1
10064 10084 10086     1
10065 10087 10088     1
10066 10087 10089     1
10067 10087 10088     1
10068 10087 10089     1
10069 10090 10091     1
10070 10090 10092     1
10071 10090 10091     1
10072 10090 10092     1
10073 10093 10094     1
10074 10093 10095     1
10075 10093 10094     1
10076 10093 10095     1
10077 10096 10097     1
10078 10096 10098     1
10079 10096 10097     1
10080 10096 10098     1
10081 10099 10100     1
10082 10099 10101     1
10083 10099 10100     1
10084 10099 10101     1
10085 10102 10103     1
10086 10102 10104     1
10087 10102 10103     1
10088 10102 10104     1
10089 10105 10106     1
10090 10105 10107     1
10091 10105 10106     1
10092 10105 10107     1
10093 10108 10109     1
10094 10108 10110     1
10095 10108 10109     1
10096 10108 10110     1
10097 10111 10112     1
10098 10111 10113     1
10099 10111 10112     1
10100 10111 10113     1
10101 10114 10115     1
10102 10114 10116     1
10103 10114 10115     1
10104 10114 10116     1
10105 10117 10118     1
10106 10117 10119     1
10107 10117 10118     1
10108 10117 10119     1
10109 10120 10121     1
10110 10120 10122     1
10111 10120 10121     1
10112 10120 10122     1
10113 10123 10124     1
10114 10123 10125     1
10115 10123 10124     1
10116 10123 10125     1
10117 10126 10127     1
10118 10126 10128     1
10119 10126 10127     1
10120 10126 10128     1
10121 10129 10130     1
10122 10129 10131     1
10123 10129 10130     1
10124 10129 10131     1
10125 10132 10133     1
10126 10132 10134     1
10127 10132 10133     1
10128 10132 10134     1
10129 10135 10136     1
10130 10135 10137     1
10131 10135 10136     1
10132 10135 10137     1
10133 10138 10139     1
10134 10138 10140     1
10135 10138 10139     1
10136 10138 10140     1
10137 10141 10142     1
10138 10141 10143     1
10139 10141 10142     1
10140 10141 10143     1
10141 10144 10145     1
10142 10144 10146     1
10143 10144 10145     1
10144 10144 10146     1
10145 10147 10148     1
10146 10147 10149     1
10147 10147 10148     1
10148 10147 10149     1
10149 10150 10151     1
10150 10150 10152     1
10151 10150 10151     1
10152 10150 10152     1
10153 10153 10154     1
10154 10153 10155     1
10155 10153 10154     1
10156 10153 10155     1
10157 10156 10157     1
10158 10156 10158     1
10159 10156 10157     1
10160 10156 10158     1
10161 10159 10160     1
10162 10159 10161     1
10163 10159 10160     1
10164 10159 10161     1
10165 10162 10163     1
10166 10162 10164     1
10167 10162 10163     1
10168 10162 10164     1
10169 10165 10166     1
10170 10165 10167     1
10171 10165 10166     1
10172 10165 10167     1
10173 10168 10169     1
10174 10168 10170     1
10175 10168 10169     1
10176 10168 10170     1
10177 10171 10172     1
10178 10171 10173     1
10179 10171 10172     1
10180 10171 10173     1
10181 10174 10175     1
10182 10174 10176     1
10183 10174 10175     1
10184 10174 10176     1
10185 10177 10178     1
10186 10177 10179     1
10187 10177 10178     1
10188 10177 10179     1
10189 10180 10181     1
10190 10180 10182     1
10191 10180 10181     1
10192 10180 10182     1
10193 10183 10184     1
10194 10183 10185     1
10195 10183 10184     1
10196 10183 10185     1
10197 10186 10187     1
10198 10186 10188     1
10199 10186 10187     1
10200 10186 10188     1
10201 10189 10190     1
10202 10189 10191     1
10203 10189 10190     1
10204 10189 10191     1
10205 10192 10193     1
10206 10192 10194     1
10207 10192 10193     1
10208 10192 10194     1
10209 10195 10196     1
10210 10195 10197     1
10211 10195 10196     1
10212 10195 10197     1
10213 10198 10199     1
10214 10198 10200     1
10215 10198 10199     1
10216 10198 10200     1
10217 10201 10202     1
10218 10201 10203     1
10219 10201 10202     1
10220 10201 10203     1
10221 10204 10205     1
10222 10204 10206     1
10223 10204 10205     1
10224 10204 10206     1
10225 10207 10208     1
10226 10207 10209     1
10227 10207 10208     1
10228 10207 10209     1
10229 10210 10211     1
10230 10210 10212     1
10231 10210 10211     1
10232 10210 10212     1
10233 10213 10214     1
10234 10213 10215     1
10235 10213 10214     1
10236 10213 10215     1
10237 10216 10217     1
10238 10216 10218     1
10239 10216 10217     1
10240 10216 10218     1
10241 10219 10220     1
10242 10219 10221     1
10243 10219 10220     1
10244 10219 10221     1
10245 10222 10223     1
10246 10222 10224     1
10247 10222 10223     1
10248 10222 10224     1
10249 10225 10226     1
10250 10225 10227     1
10251 10225 10226     1
10252 10225 10227     1
10253 10228 10229     1
10254 10228 10230     1
10255 10228 10229     1
10256 10228 10230     1
10257 10231 10232     1
10258 10231 10233     1
10259 10231 10232     1
10260 10231 10233     1
10261 10234 10235     1
10262 10234 10236     1
10263 10234 10235     1
10264 10234 10236     1
10265 10237 10238     1
10266 10237 10239     1
10267 10237 10238     1
10268 10237 10239     1
10269 10240 10241     1
10270 10240 10242     1
10271 10240 10241     1
10272 10240 10242     1
10273 10243 10244     1
10274 10243 10245     1
10275 10243 10244     1
10276 10243 10245     1
10277 10246 10247     1
10278 10246 10248     1
10279 10246 10247     1
10280 10246 10248     1
10281 10249 10250     1
10282 10249 10251     1
10283 10249 10250     1
10284 10249 10251     1
10285 10252 10253     1
10286 10252 10254     1
10287 10252 10253     1
10288 10252 10254     1
10289 10255 10256     1
10290 10255 10257     1
10291 10255 10256     1
10292 10255 10257     1
10293 10258 10259     1
10294 10258 10260     1
10295 10258 10259     1
10296 10258 10260     1
10297 10261 10262     1
10298 10261 10263     1
10299 10261 10262     1
10300 10261 10263     1
10301 10264 10265     1
10302 10264 10266     1
10303 10264 10265     1
10304 10264 10266     1
10305 10267 10268     1
10306 10267 10269     1
10307 10267 10268     1
10308 10267 10269     1
10309 10270 10271     1
10310 10270 10272     1
10311 10270 10271     1
10312 10270 10272     1
10313 10273 10274     1
10314 10273 10275     1
10315 10273 10274     1
10316 10273 10275     1
10317 10276 10277     1
10318 10276 10278     1
10319 10276 10277     1
10320 10276 10278     1
10321 10279 10280     1
10322 10279 10281     1
10323 10279 10280     1
10324 10279 10281     1
10325 10282 10283     1
10326 10282 10284     1
10327 10282 10283     1
10328 10282 10284     1
10329 10285 10286     1
10330 10285 10287     1
10331 10285 10286     1
10332 10285 10287     1
10333 10288 10289     1
10334 10288 10290     1
10335 10288 10289     1
10336 10288 10290     1
10337 10291 10292     1
10338 10291 10293     1
10339 10291 10292     1
10340 10291 10293     1
10341 10294 10295     1
10342 10294 10296     1
10343 10294 10295     1
10344 10294 10296     1
10345 10297 10298     1
10346 10297 10299     1
10347 10297 10298     1
10348 10297 10299     1
10349 10300 10301     1
10350 10300 10302     1
10351 10300 10301     1
10352 10300 10302     1
10353 10303 10304     1
10354 10303 10305     1
10355 10303 10304     1
10356 10303 10305     1
10357 10306 10307     1
10358 10306 10308     1
10359 10306 10307     1
10360 10306 10308     1
10361 10309 10310     1
10362 10309 10311     1
10363 10309 10310     1
10364 10309 10311     1
10365 10312 10313     1
10366 10312 10314     1
10367 10312 10313     1
10368 10312 10314     1
10369 10315 10316     1
10370 10315 10317     1
10371 10315 10316     1
10372 10315 10317     1
10373 10318 10319     1
10374 10318 10320     1
10375 10318 10319     1
10376 10318 10320     1
10377 10321 10322     1
10378 10321 10323     1
10379 10321 10322     1
10380 10321 10323     1
10381 10324 10325     1
10382 10324 10326     1
10383 10324 10325     1
10384 10324 10326     1
10385 10327 10328     1
10386 10327 10329     1
10387 10327 10328     1
10388 10327 10329     1
10389 10330 10331     1
10390 10330 10332     1
10391 10330 10331     1
10392 10330 10332     1
10393 10333 10334     1
10394 10333 10335     1
10395 10333 10334     1
10396 10333 10335     1
10397 10336 10337     1
10398 10336 10338     1
10399 10336 10337     1
10400 10336 10338     1
10401 10339 10340     1
10402 10339 10341     1
10403 10339 10340     1
10404 10339 10341     1
10405 10342 10343     1
10406 10342 10344     1
10407 10342 10343     1
10408 10342 10344     1
10409 10345 10346     1
10410 10345 10347     1
10411 10345 10346     1
10412 10345 10347     1
10413 10348 10349     1
10414 10348 10350     1
10415 10348 10349     1
10416 10348 10350     1
10417 10351 10352     1
10418 10351 10353     1
10419 10351 10352     1
10420 10351 10353     1
10421 10354 10355     1
10422 10354 10356     1
10423 10354 10355     1
10424 10354 10356     1
10425 10357 10358     1
10426 10357 10359     1
10427 10357 10358     1
10428 10357 10359     1
10429 10360 10361     1
10430 10360 10362     1
10431 10360 10361     1
10432 10360 10362     1
10433 10363 10364     1
10434 10363 10365     1
10435 10363 10364     1
10436 10363 10365     1
10437 10366 10367     1
10438 10366 10368     1
10439 10366 10367     1
10440 10366 10368     1
10441 10369 10370     1
10442 10369 10371     1
10443 10369 10370     1
10444 10369 10371     1
10445 10372 10373     1
10446 10372 10374     1
10447 10372 10373     1
10448 10372 10374     1
10449 10375 10376     1
10450 10375 10377     1
10451 10375 10376     1
10452 10375 10377     1
10453 10378 10379     1
10454 10378 10380     1
10455 10378 10379     1
10456 10378 10380     1
10457 10381 10382     1
10458 10381 10383     1
10459 10381 10382     1
10460 10381 10383     1
10461 10384 10385     1
10462 10384 10386     1
10463 10384 10385     1
10464 10384 10386     1
10465 10387 10388     1
10466 10387 10389     1
10467 10387 10388     1
10468 10387 10389     1
10469 10390 10391     1
10470 10390 10392     1
10471 10390 10391     1
10472 10390 10392     1
10473 10393 10394     1
10474 10393 10395     1
10475 10393 10394     1
10476 10393 10395     1
10477 10396 10397     1
10478 10396 10398     1
10479 10396 10397     1
10480 10396 10398     1
10481 10399 10400     1
10482 10399 10401     1
10483 10399 10400     1
10484 10399 10401     1
10485 10402 10403     1
10486 10402 10404     1
10487 10402 10403     1
10488 10402 10404     1
10489 10405 10406     1
10490 10405 10407     1
10491 10405 10406     1
10492 10405 10407     1
10493 10408 10409     1
10494 10408 10410     1
10495 10408 10409     1
10496 10408 10410     1
10497 10411 10412     1
10498 10411 10413     1
10499 10411 10412     1
10500 10411 10413     1
10501 10414 10415     1
10502 10414 10416     1
10503 10414 10415     1
10504 10414 10416     1
10505 10417 10418     1
10506 10417 10419     1
10507 10417 10418     1
10508 10417 10419     1
10509 10420 10421     1
10510 10420 10422     1
10511 10420 10421     1
10512 10420 10422     1
10513 10423 10424     1
10514 10423 10425     1
10515 10423 10424     1
10516 10423 10425     1
10517 10426 10427     1
10518 10426 10428     1
10519 10426 10427     1
10520 10426 10428     1
10521 10429 10430     1
10522 10429 10431     1
10523 10429 10430     1
10524 10429 10431     1
10525 10432 10433     1
10526 10432 10434     1
10527 10432 10433     1
10528 10432 10434     1
10529 10435 10436     1
10530 10435 10437     1
10531 10435 10436     1
10532 10435 10437     1
10533 10438 10439     1
10534 10438 10440     1
10535 10438 10439     1
10536 10438 10440     1
10537 10441 10442     1
10538 10441 10443     1
10539 10441 10442     1
10540 10441 10443     1
10541 10444 10445     1
10542 10444 10446     1
10543 10444 10445     1
10544 10444 10446     1
10545 10447 10448     1
10546 10447 10449     1
10547 10447 10448     1
10548 10447 10449     1
10549 10450 10451     1
10550 10450 10452     1
10551 10450 10451     1
10552 10450 10452     1
10553 10453 10454     1
10554 10453 10455     1
10555 10453 10454     1
10556 10453 10455     1
10557 10456 10457     1
10558 10456 10458     1
10559 10456 10457     1
10560 10456 10458     1
10561 10459 10460     1
10562 10459 10461     1
10563 10459 10460     1
10564 10459 10461     1
10565 10462 10463     1
10566 10462 10464     1
10567 10462 10463     1
10568 10462 10464     1
10569 10465 10466     1
10570 10465 10467     1
10571 10465 10466     1
10572 10465 10467     1
10573 10468 10469     1
10574 10468 10470     1
10575 10468 10469     1
10576 10468 10470     1
10577 10471 10472     1
10578 10471 10473     1
10579 10471 10472     1
10580 10471 10473     1
10581 10474 10475     1
10582 10474 10476     1
10583 10474 10475     1
10584 10474 10476     1
10585 10477 10478     1
10586 10477 10479     1
10587 10477 10478     1
10588 10477 10479     1
10589 10480 10481     1
10590 10480 10482     1
10591 10480 10481     1
10592 10480 10482     1
10593 10483 10484     1
10594 10483 10485     1
10595 10483 10484     1
10596 10483 10485     1
10597 10486 10487     1
10598 10486 10488     1
10599 10486 10487     1
10600 10486 10488     1
10601 10489 10490     1
10602 10489 10491     1
10603 10489 10490     1
10604 10489 10491     1
10605 10492 10493     1
10606 10492 10494     1
10607 10492 10493     1
10608 10492 10494     1
10609 10495 10496     1
10610 10495 10497     1
10611 10495 10496     1
10612 10495 10497     1
10613 10498 10499     1
10614 10498 10500     1
10615 10498 10499     1
10616 10498 10500     1
10617 10501 10502     1
10618 10501 10503     1
10619 10501 10502     1
10620 10501 10503     1
10621 10504 10505     1
10622 10504 10506     1
10623 10504 10505     1
10624 10504 10506     1
10625 10507 10508     1
10626 10507 10509     1
10627 10507 10508     1
10628 10507 10509     1
10629 10510 10511     1
10630 10510 10512     1
10631 10510 10511     1
10632 10510 10512     1
10633 10513 10514     1
10634 10513 10515     1
10635 10513 10514     1
10636 10513 10515     1
10637 10516 10517     1
10638 10516 10518     1
10639 10516 10517     1
10640 10516 10518     1
10641 10519 10520     1
10642 10519 10521     1
10643 10519 10520     1
10644 10519 10521     1
10645 10522 10523     1
10646 10522 10524     1
10647 10522 10523     1
10648 10522 10524     1
10649 10525 10526     1
10650 10525 10527     1
10651 10525 10526     1
10652 10525 10527     1
10653 10528 10529     1
10654 10528 10530     1
10655 10528 10529     1
10656 10528 10530     1
10657 10531 10532     1
10658 10531 10533     1
10659 10531 10532     1
10660 10531 10533     1
10661 10534 10535     1
10662 10534 10536     1
10663 10534 10535     1
10664 10534 10536     1
10665 10537 10538     1
10666 10537 10539     1
10667 10537 10538     1
10668 10537 10539     1
10669 10540 10541     1
10670 10540 10542     1
10671 10540 10541     1
10672 10540 10542     1
10673 10543 10544     1
10674 10543 10545     1
10675 10543 10544     1
10676 10543 10545     1
10677 10546 10547     1
10678 10546 10548     1
10679 10546 10547     1
10680 10546 10548     1
10681 10549 10550     1
10682 10549 10551     1
10683 10549 10550     1
10684 10549 10551     1
10685 10552 10553     1
10686 10552 10554     1
10687 10552 10553     1
10688 10552 10554     1
10689 10555 10556     1
10690 10555 10557     1
10691 10555 10556     1
10692 10555 10557     1
10693 10558 10559     1
10694 10558 10560     1
10695 10558 10559     1
10696 10558 10560     1
10697 10561 10562     1
10698 10561 10563     1
10699 10561 10562     1
10700 10561 10563     1
10701 10564 10565     1
10702 10564 10566     1
10703 10564 10565     1
10704 10564 10566     1
10705 10567 10568     1
10706 10567 10569     1
10707 10567 10568     1
10708 10567 10569     1
10709 10570 10571     1
10710 10570 10572     1
10711 10570 10571     1
10712 10570 10572     1
10713 10573 10574     1
10714 10573 10575     1
10715 10573 10574     1
10716 10573 10575     1
10717 10576 10577     1
10718 10576 10578     1
10719 10576 10577     1
10720 10576 10578     1
10721 10579 10580     1
10722 10579 10581     1
10723 10579 10580     1
10724 10579 10581     1
10725 10582 10583     1
10726 10582 10584     1
10727 10582 10583     1
10728 10582 10584     1
10729 10585 10586     1
10730 10585 10587     1
10731 10585 10586     1
10732 10585 10587     1
10733 10588 10589     1
10734 10588 10590     1
10735 10588 10589     1
10736 10588 10590     1
10737 10591 10592     1
10738 10591 10593     1
10739 10591 10592     1
10740 10591 10593     1
10741 10594 10595     1
10742 10594 10596     1
10743 10594 10595     1
10744 10594 10596     1
10745 10597 10598     1
10746 10597 10599     1
10747 10597 10598     1
10748 10597 10599     1
10749 10600 10601     1
10750 10600 10602     1
10751 10600 10601     1
10752 10600 10602     1
10753 10603 10604     1
10754 10603 10605     1
10755 10603 10604     1
10756 10603 10605     1
10757 10606 10607     1
10758 10606 10608     1
10759 10606 10607     1
10760 10606 10608     1
10761 10609 10610     1
10762 10609 10611     1
10763 10609 10610     1
10764 10609 10611     1
10765 10612 10613     1
10766 10612 10614     1
10767 10612 10613     1
10768 10612 10614     1
10769 10615 10616     1
10770 10615 10617     1
10771 10615 10616     1
10772 10615 10617     1
10773 10618 10619     1
10774 10618 10620     1
10775 10618 10619     1
10776 10618 10620     1
10777 10621 10622     1
10778 10621 10623     1
10779 10621 10622     1
10780 10621 10623     1
10781 10624 10625     1
10782 10624 10626     1
10783 10624 10625     1
10784 10624 10626     1
10785 10627 10628     1
10786 10627 10629     1
10787 10627 10628     1
10788 10627 10629     1
10789 10630 10631     1
10790 10630 10632     1
10791 10630 10631     1
10792 10630 10632     1
10793 10633 10634     1
10794 10633 10635     1
10795 10633 10634     1
10796 10633 10635     1
10797 10636 10637     1
10798 10636 10638     1
10799 10636 10637     1
10800 10636 10638     1
10801 10639 10640     1
10802 10639 10641     1
10803 10639 10640     1
10804 10639 10641     1
10805 10642 10643     1
10806 10642 10644     1
10807 10642 10643     1
10808 10642 10644     1
10809 10645 10646     1
10810 10645 10647     1
10811 10645 10646     1
10812 10645 10647     1
10813 10648 10649     1
10814 10648 10650     1
10815 10648 10649     1
10816 10648 10650     1
10817 10651 10652     1
10818 10651 10653     1
10819 10651 10652     1
10820 10651 10653     1
10821 10654 10655     1
10822 10654 10656     1
10823 10654 10655     1
10824 10654 10656     1
10825 10657 10658     1
10826 10657 10659     1
10827 10657 10658     1
10828 10657 10659     1
10829 10660 10661     1
10830 10660 10662     1
10831 10660 10661     1
10832 10660 10662     1
10833 10663 10664     1
10834 10663 10665     1
10835 10663 10664     1
10836 10663 10665     1
10837 10666 10667     1
10838 10666 10668     1
10839 10666 10667     1
10840 10666 10668     1
10841 10669 10670     1
10842 10669 10671     1
10843 10669 10670     1
10844 10669 10671     1
10845 10672 10673     1
10846 10672 10674     1
10847 10672 10673     1
10848 10672 10674     1
10849 10675 10676     1
10850 10675 10677     1
10851 10675 10676     1
10852 10675 10677     1
10853 10678 10679     1
10854 10678 10680     1
10855 10678 10679     1
10856 10678 10680     1
10857 10681 10682     1
10858 10681 10683     1
10859 10681 10682     1
10860 10681 10683     1
10861 10684 10685     1
10862 10684 10686     1
10863 10684 10685     1
10864 10684 10686     1
10865 10687 10688     1
10866 10687 10689     1
10867 10687 10688     1
10868 10687 10689     1
10869 10690 10691     1
10870 10690 10692     1
10871 10690 10691     1
10872 10690 10692     1
10873 10693 10694     1
10874 10693 10695     1
10875 10693 10694     1
10876 10693 10695     1
10877 10696 10697     1
10878 10696 10698     1
10879 10696 10697     1
10880 10696 10698     1
10881 10699 10700     1
10882 10699 10701     1
10883 10699 10700     1
10884 10699 10701     1
10885 10702 10703     1
10886 10702 10704     1
10887 10702 10703     1
10888 10702 10704     1
10889 10705 10706     1
10890 10705 10707     1
10891 10705 10706     1
10892 10705 10707     1
10893 10708 10709     1
10894 10708 10710     1
10895 10708 10709     1
10896 10708 10710     1
10897 10711 10712     1
10898 10711 10713     1
10899 10711 10712     1
10900 10711 10713     1
10901 10714 10715     1
10902 10714 10716     1
10903 10714 10715     1
10904 10714 10716     1
10905 10717 10718     1
10906 10717 10719     1
10907 10717 10718     1
10908 10717 10719     1
10909 10720 10721     1
10910 10720 10722     1
10911 10720 10721     1
10912 10720 10722     1
10913 10723 10724     1
10914 10723 10725     1
10915 10723 10724     1
10916 10723 10725     1
10917 10726 10727     1
10918 10726 10728     1
10919 10726 10727     1
10920 10726 10728     1
10921 10729 10730     1
10922 10729 10731     1
10923 10729 10730     1
10924 10729 10731     1
10925 10732 10733     1
10926 10732 10734     1
10927 10732 10733     1
10928 10732 10734     1
10929 10735 10736     1
10930 10735 10737     1
10931 10735 10736     1
10932 10735 10737     1
10933 10738 10739     1
10934 10738 10740     1
10935 10738 10739     1
10936 10738 10740     1
10937 10741 10742     1
10938 10741 10743     1
10939 10741 10742     1
10940 10741 10743     1
10941 10744 10745     1
10942 10744 10746     1
10943 10744 10745     1
10944 10744 10746     1
10945 10747 10748     1
10946 10747 10749     1
10947 10747 10748     1
10948 10747 10749     1
10949 10750 10751     1
10950 10750 10752     1
10951 10750 10751     1
10952 10750 10752     1
10953 10753 10754     1
10954 10753 10755     1
10955 10753 10754     1
10956 10753 10755     1
10957 10756 10757     1
10958 10756 10758     1
10959 10756 10757     1
10960 10756 10758     1
10961 10759 10760     1
10962 10759 10761     1
10963 10759 10760     1
10964 10759 10761     1
10965 10762 10763     1
10966 10762 10764     1
10967 10762 10763     1
10968 10762 10764     1
10969 10765 10766     1
10970 10765 10767     1
10971 10765 10766     1
10972 10765 10767     1
10973 10768 10769     1
10974 10768 10770     1
10975 10768 10769     1
10976 10768 10770     1
10977 10771 10772     1
10978 10771 10773     1
10979 10771 10772     1
10980 10771 10773     1
10981 10774 10775     1
10982 10774 10776     1
10983 10774 10775     1
10984 10774 10776     1
10985 10777 10778     1
10986 10777 10779     1
10987 10777 10778     1
10988 10777 10779     1
10989 10780 10781     1
10990 10780 10782     1
10991 10780 10781     1
10992 10780 10782     1
10993 10783 10784     1
10994 10783 10785     1
10995 10783 10784     1
10996 10783 10785     1
10997 10786 10787     1
10998 10786 10788     1
10999 10786 10787     1
11000 10786 10788     1
11001 10789 10790     1
11002 10789 10791     1
11003 10789 10790     1
11004 10789 10791     1
11005 10792 10793     1
11006 10792 10794     1
11007 10792 10793     1
11008 10792 10794     1
11009 10795 10796     1
11010 10795 10797     1
11011 10795 10796     1
11012 10795 10797     1
11013 10798 10799     1
11014 10798 10800     1
11015 10798 10799     1
11016 10798 10800     1
11017 10801 10802     1
11018 10801 10803     1
11019 10801 10802     1
11020 10801 10803     1
11021 10804 10805     1
11022 10804 10806     1
11023 10804 10805     1
11024 10804 10806     1
11025 10807 10808     1
11026 10807 10809     1
11027 10807 10808     1
11028 10807 10809     1
11029 10810 10811     1
11030 10810 10812     1
11031 10810 10811     1
11032 10810 10812     1
11033 10813 10814     1
11034 10813 10815     1
11035 10813 10814     1
11036 10813 10815     1
11037 10816 10817     1
11038 10816 10818     1
11039 10816 10817     1
11040 10816 10818     1
11041 10819 10820     1
11042 10819 10821     1
11043 10819 10820     1
11044 10819 10821     1
11045 10822 10823     1
11046 10822 10824     1
11047 10822 10823     1
11048 10822 10824     1
11049 10825 10826     1
11050 10825 10827     1
11051 10825 10826     1
11052 10825 10827     1
11053 10828 10829     1
11054 10828 10830     1
11055 10828 10829     1
11056 10828 10830     1
11057 10831 10832     1
11058 10831 10833     1
11059 10831 10832     1
11060 10831 10833     1
11061 10834 10835     1
11062 10834 10836     1
11063 10834 10835     1
11064 10834 10836     1
11065 10837 10838     1
11066 10837 10839     1
11067 10837 10838     1
11068 10837 10839     1
11069 10840 10841     1
11070 10840 10842     1
11071 10840 10841     1
11072 10840 10842     1
11073 10843 10844     1
11074 10843 10845     1
11075 10843 10844     1
11076 10843 10845     1
11077 10846 10847     1
11078 10846 10848     1
11079 10846 10847     1
11080 10846 10848     1
11081 10849 10850     1
11082 10849 10851     1
11083 10849 10850     1
11084 10849 10851     1
11085 10852 10853     1
11086 10852 10854     1
11087 10852 10853     1
11088 10852 10854     1
11089 10855 10856     1
11090 10855 10857     1
11091 10855 10856     1
11092 10855 10857     1
11093 10858 10859     1
11094 10858 10860     1
11095 10858 10859     1
11096 10858 10860     1
11097 10861 10862     1
11098 10861 10863     1
11099 10861 10862     1
11100 10861 10863     1
11101 10864 10865     1
11102 10864 10866     1
11103 10864 10865     1
11104 10864 10866     1
11105 10867 10868     1
11106 10867 10869     1
11107 10867 10868     1
11108 10867 10869     1
11109 10870 10871     1
11110 10870 10872     1
11111 10870 10871     1
11112 10870 10872     1
11113 10873 10874     1
11114 10873 10875     1
11115 10873 10874     1
11116 10873 10875     1
11117 10876 10877     1
11118 10876 10878     1
11119 10876 10877     1
11120 10876 10878     1
11121 10879 10880     1
11122 10879 10881     1
11123 10879 10880     1
11124 10879 10881     1
11125 10882 10883     1
11126 10882 10884     1
11127 10882 10883     1
11128 10882 10884     1
11129 10885 10886     1
11130 10885 10887     1
11131 10885 10886     1
11132 10885 10887     1
11133 10888 10889     1
11134 10888 10890     1
11135 10888 10889     1
11136 10888 10890     1
11137 10891 10892     1
11138 10891 10893     1
11139 10891 10892     1
11140 10891 10893     1
11141 10894 10895     1
11142 10894 10896     1
11143 10894 10895     1
11144 10894 10896     1
11145 10897 10898     1
11146 10897 10899     1
11147 10897 10898     1
11148 10897 10899     1
11149 10900 10901     1
11150 10900 10902     1
11151 10900 10901     1
11152 10900 10902     1
11153 10903 10904     1
11154 10903 10905     1
11155 10903 10904     1
11156 10903 10905     1
11157 10906 10907     1
11158 10906 10908     1
11159 10906 10907     1
11160 10906 10908     1
11161 10909 10910     1
11162 10909 10911     1
11163 10909 10910     1
11164 10909 10911     1
11165 10912 10913     1
11166 10912 10914     1
11167 10912 10913     1
11168 10912 10914     1
11169 10915 10916     1
11170 10915 10917     1
11171 10915 10916     1
11172 10915 10917     1
11173 10918 10919     1
11174 10918 10920     1
11175 10918 10919     1
11176 10918 10920     1
11177 10921 10922     1
11178 10921 10923     1
11179 10921 10922     1
11180 10921 10923     1
11181 10924 10925     1
11182 10924 10926     1
11183 10924 10925     1
11184 10924 10926     1
11185 10927 10928     1
11186 10927 10929     1
11187 10927 10928     1
11188 10927 10929     1
11189 10930 10931     1
11190 10930 10932     1
11191 10930 10931     1
11192 10930 10932     1
11193 10933 10934     1
11194 10933 10935     1
11195 10933 10934     1
11196 10933 10935     1
11197 10936 10937     1
11198 10936 10938     1
11199 10936 10937     1
11200 10936 10938     1
11201 10939 10940     1
11202 10939 10941     1
11203 10939 10940     1
11204 10939 10941     1
11205 10942 10943     1
11206 10942 10944     1
11207 10942 10943     1
11208 10942 10944     1
11209 10945 10946     1
11210 10945 10947     1
11211 10945 10946     1
11212 10945 10947     1
11213 10948 10949     1
11214 10948 10950     1
11215 10948 10949     1
11216 10948 10950     1
11217 10951 10952     1
11218 10951 10953     1
11219 10951 10952     1
11220 10951 10953     1
11221 10954 10955     1
11222 10954 10956     1
11223 10954 10955     1
11224 10954 10956     1
11225 10957 10958     1
11226 10957 10959     1
11227 10957 10958     1
11228 10957 10959     1
11229 10960 10961     1
11230 10960 10962     1
11231 10960 10961     1
11232 10960 10962     1
11233 10963 10964     1
11234 10963 10965     1
11235 10963 10964     1
11236 10963 10965     1
11237 10966 10967     1
11238 10966 10968     1
11239 10966 10967     1
11240 10966 10968     1
11241 10969 10970     1
11242 10969 10971     1
11243 10969 10970     1
11244 10969 10971     1
11245 10972 10973     1
11246 10972 10974     1
11247 10972 10973     1
11248 10972 10974     1
11249 10975 10976     1
11250 10975 10977     1
11251 10975 10976     1
11252 10975 10977     1
11253 10978 10979     1
11254 10978 10980     1
11255 10978 10979     1
11256 10978 10980     1
11257 10981 10982     1
11258 10981 10983     1
11259 10981 10982     1
11260 10981 10983     1
11261 10984 10985     1
11262 10984 10986     1
11263 10984 10985     1
11264 10984 10986     1
11265 10987 10988     1
11266 10987 10989     1
11267 10987 10988     1
11268 10987 10989     1
11269 10990 10991     1
11270 10990 10992     1
11271 10990 10991     1
11272 10990 10992     1
11273 10993 10994     1
11274 10993 10995     1
11275 10993 10994     1
11276 10993 10995     1
11277 10996 10997     1
11278 10996 10998     1
11279 10996 10997     1
11280 10996 10998     1
11281 10999 11000     1
11282 10999 11001     1
11283 10999 11000     1
11284 10999 11001     1
11285 11002 11003     1
11286 11002 11004     1
11287 11002 11003     1
11288 11002 11004     1
11289 11005 11006     1
11290 11005 11007     1
11291 11005 11006     1
11292 11005 11007     1
11293 11008 11009     1
11294 11008 11010     1
11295 11008 11009     1
11296 11008 11010     1
11297 11011 11012     1
11298 11011 11013     1
11299 11011 11012     1
11300 11011 11013     1
11301 11014 11015     1
11302 11014 11016     1
11303 11014 11015     1
11304 11014 11016     1
11305 11017 11018     1
11306 11017 11019     1
11307 11017 11018     1
11308 11017 11019     1
11309 11020 11021     1
11310 11020 11022     1
11311 11020 11021     1
11312 11020 11022     1
11313 11023 11024     1
11314 11023 11025     1
11315 11023 11024     1
11316 11023 11025     1
11317 11026 11027     1
11318 11026 11028     1
11319 11026 11027     1
11320 11026 11028     1
11321 11029 11030     1
11322 11029 11031     1
11323 11029 11030     1
11324 11029 11031     1
11325 11032 11033     1
11326 11032 11034     1
11327 11032 11033     1
11328 11032 11034     1
11329 11035 11036     1
11330 11035 11037     1
11331 11035 11036     1
11332 11035 11037     1
11333 11038 11039     1
11334 11038 11040     1
11335 11038 11039     1
11336 11038 11040     1
11337 11041 11042     1
11338 11041 11043     1
11339 11041 11042     1
11340 11041 11043     1
11341 11044 11045     1
11342 11044 11046     1
11343 11044 11045     1
11344 11044 11046     1
11345 11047 11048     1
11346 11047 11049     1
11347 11047 11048     1
11348 11047 11049     1
11349 11050 11051     1
11350 11050 11052     1
11351 11050 11051     1
11352 11050 11052     1
11353 11053 11054     1
11354 11053 11055     1
11355 11053 11054     1
11356 11053 11055     1
11357 11056 11057     1
11358 11056 11058     1
11359 11056 11057     1
11360 11056 11058     1
11361 11059 11060     1
11362 11059 11061     1
11363 11059 11060     1
11364 11059 11061     1
11365 11062 11063     1
11366 11062 11064     1
11367 11062 11063     1
11368 11062 11064     1
11369 11065 11066     1
11370 11065 11067     1
11371 11065 11066     1
11372 11065 11067     1
11373 11068 11069     1
11374 11068 11070     1
11375 11068 11069     1
11376 11068 11070     1
11377 11071 11072     1
11378 11071 11073     1
11379 11071 11072     1
11380 11071 11073     1
11381 11074 11075     1
11382 11074 11076     1
11383 11074 11075     1
11384 11074 11076     1
11385 11077 11078     1
11386 11077 11079     1
11387 11077 11078     1
11388 11077 11079     1
11389 11080 11081     1
11390 11080 11082     1
11391 11080 11081     1
11392 11080 11082     1
11393 11083 11084     1
11394 11083 11085     1
11395 11083 11084     1
11396 11083 11085     1
11397 11086 11087     1
11398 11086 11088     1
11399 11086 11087     1
11400 11086 11088     1
11401 11089 11090     1
11402 11089 11091     1
11403 11089 11090     1
11404 11089 11091     1
11405 11092 11093     1
11406 11092 11094     1
11407 11092 11093     1
11408 11092 11094     1
11409 11095 11096     1
11410 11095 11097     1
11411 11095 11096     1
11412 11095 11097     1
11413 11098 11099     1
11414 11098 11100     1
11415 11098 11099     1
11416 11098 11100     1
11417 11101 11102     1
11418 11101 11103     1
11419 11101 11102     1
11420 11101 11103     1
11421 11104 11105     1
11422 11104 11106     1
11423 11104 11105     1
11424 11104 11106     1
11425 11107 11108     1
11426 11107 11109     1
11427 11107 11108     1
11428 11107 11109     1
11429 11110 11111     1
11430 11110 11112     1
11431 11110 11111     1
11432 11110 11112     1
11433 11113 11114     1
11434 11113 11115     1
11435 11113 11114     1
11436 11113 11115     1
11437 11116 11117     1
11438 11116 11118     1
11439 11116 11117     1
11440 11116 11118     1
11441 11119 11120     1
11442 11119 11121     1
11443 11119 11120     1
11444 11119 11121     1
11445 11122 11123     1
11446 11122 11124     1
11447 11122 11123     1
11448 11122 11124     1
11449 11125 11126     1
11450 11125 11127     1
11451 11125 11126     1
11452 11125 11127     1
11453 11128 11129     1
11454 11128 11130     1
11455 11128 11129     1
11456 11128 11130     1
11457 11131 11132     1
11458 11131 11133     1
11459 11131 11132     1
11460 11131 11133     1
11461 11134 11135     1
11462 11134 11136     1
11463 11134 11135     1
11464 11134 11136     1
11465 11137 11138     1
11466 11137 11139     1
11467 11137 11138     1
11468 11137 11139     1
11469 11140 11141     1
11470 11140 11142     1
11471 11140 11141     1
11472 11140 11142     1
11473 11143 11144     1
11474 11143 11145     1
11475 11143 11144     1
11476 11143 11145     1
11477 11146 11147     1
11478 11146 11148     1
11479 11146 11147     1
11480 11146 11148     1
11481 11149 11150     1
11482 11149 11151     1
11483 11149 11150     1
11484 11149 11151     1
11485 11152 11153     1
11486 11152 11154     1
11487 11152 11153     1
11488 11152 11154     1
11489 11155 11156     1
11490 11155 11157     1
11491 11155 11156     1
11492 11155 11157     1
11493 11158 11159     1
11494 11158 11160     1
11495 11158 11159     1
11496 11158 11160     1
11497 11161 11162     1
11498 11161 11163     1
11499 11161 11162     1
11500 11161 11163     1
11501 11164 11165     1
11502 11164 11166     1
11503 11164 11165     1
11504 11164 11166     1
11505 11167 11168     1
11506 11167 11169     1
11507 11167 11168     1
11508 11167 11169     1
11509 11170 11171     1
11510 11170 11172     1
11511 11170 11171     1
11512 11170 11172     1
11513 11173 11174     1
11514 11173 11175     1
11515 11173 11174     1
11516 11173 11175     1
11517 11176 11177     1
11518 11176 11178     1
11519 11176 11177     1
11520 11176 11178     1
11521 11179 11180     1
11522 11179 11181     1
11523 11179 11180     1
11524 11179 11181     1
11525 11182 11183     1
11526 11182 11184     1
11527 11182 11183     1
11528 11182 11184     1
11529 11185 11186     1
11530 11185 11187     1
11531 11185 11186     1
11532 11185 11187     1
11533 11188 11189     1
11534 11188 11190     1
11535 11188 11189     1
11536 11188 11190     1
11537 11191 11192     1
11538 11191 11193     1
11539 11191 11192     1
11540 11191 11193     1
11541 11194 11195     1
11542 11194 11196     1
11543 11194 11195     1
11544 11194 11196     1
11545 11197 11198     1
11546 11197 11199     1
11547 11197 11198     1
11548 11197 11199     1
11549 11200 11201     1
11550 11200 11202     1
11551 11200 11201     1
11552 11200 11202     1
11553 11203 11204     1
11554 11203 11205     1
11555 11203 11204     1
11556 11203 11205     1
11557 11206 11207     1
11558 11206 11208     1
11559 11206 11207     1
11560 11206 11208     1
11561 11209 11210     1
11562 11209 11211     1
11563 11209 11210     1
11564 11209 11211     1
11565 11212 11213     1
11566 11212 11214     1
11567 11212 11213     1
11568 11212 11214     1
11569 11215 11216     1
11570 11215 11217     1
11571 11215 11216     1
11572 11215 11217     1
11573 11218 11219     1
11574 11218 11220     1
11575 11218 11219     1
11576 11218 11220     1
11577 11221 11222     1
11578 11221 11223     1
11579 11221 11222     1
11580 11221 11223     1
11581 11224 11225     1
11582 11224 11226     1
11583 11224 11225     1
11584 11224 11226     1
11585 11227 11228     1
11586 11227 11229     1
11587 11227 11228     1
11588 11227 11229     1
11589 11230 11231     1
11590 11230 11232     1
11591 11230 11231     1
11592 11230 11232     1
11593 11233 11234     1
11594 11233 11235     1
11595 11233 11234     1
11596 11233 11235     1
11597 11236 11237     1
11598 11236 11238     1
11599 11236 11237     1
11600 11236 11238     1
11601 11239 11240     1
11602 11239 11241     1
11603 11239 11240     1
11604 11239 11241     1
11605 11242 11243     1
11606 11242 11244     1
11607 11242 11243     1
11608 11242 11244     1
11609 11245 11246     1
11610 11245 11247     1
11611 11245 11246     1
11612 11245 11247     1
11613 11248 11249     1
11614 11248 11250     1
11615 11248 11249     1
11616 11248 11250     1
11617 11251 11252     1
11618 11251 11253     1
11619 11251 11252     1
11620 11251 11253     1
11621 11254 11255     1
11622 11254 11256     1
11623 11254 11255     1
11624 11254 11256     1
11625 11257 11258     1
11626 11257 11259     1
11627 11257 11258     1
11628 11257 11259     1
11629 11260 11261     1
11630 11260 11262     1
11631 11260 11261     1
11632 11260 11262     1
11633 11263 11264     1
11634 11263 11265     1
11635 11263 11264     1
11636 11263 11265     1
11637 11266 11267     1
11638 11266 11268     1
11639 11266 11267     1
11640 11266 11268     1
11641 11269 11270     1
11642 11269 11271     1
11643 11269 11270     1
11644 11269 11271     1
11645 11272 11273     1
11646 11272 11274     1
11647 11272 11273     1
11648 11272 11274     1
11649 11275 11276     1
11650 11275 11277     1
11651 11275 11276     1
11652 11275 11277     1
11653 11278 11279     1
11654 11278 11280     1
11655 11278 11279     1
11656 11278 11280     1
11657 11281 11282     1
11658 11281 11283     1
11659 11281 11282     1
11660 11281 11283     1
11661 11284 11285     1
11662 11284 11286     1
11663 11284 11285     1
11664 11284 11286     1
11665 11287 11288     1
11666 11287 11289     1
11667 11287 11288     1
11668 11287 11289     1
11669 11290 11291     1
11670 11290 11292     1
11671 11290 11291     1
11672 11290 11292     1
11673 11293 11294     1
11674 11293 11295     1
11675 11293 11294     1
11676 11293 11295     1
11677 11296 11297     1
11678 11296 11298     1
11679 11296 11297     1
11680 11296 11298     1
11681 11299 11300     1
11682 11299 11301     1
11683 11299 11300     1
11684 11299 11301     1
11685 11302 11303     1
11686 11302 11304     1
11687 11302 11303     1
11688 11302 11304     1
11689 11305 11306     1
11690 11305 11307     1
11691 11305 11306     1
11692 11305 11307     1
11693 11308 11309     1
11694 11308 11310     1
11695 11308 11309     1
11696 11308 11310     1
11697 11311 11312     1
11698 11311 11313     1
11699 11311 11312     1
11700 11311 11313     1
11701 11314 11315     1
11702 11314 11316     1
11703 11314 11315     1
11704 11314 11316     1
11705 11317 11318     1
11706 11317 11319     1
11707 11317 11318     1
11708 11317 11319     1
11709 11320 11321     1
11710 11320 11322     1
11711 11320 11321     1
11712 11320 11322     1
11713 11323 11324     1
11714 11323 11325     1
11715 11323 11324     1
11716 11323 11325     1
11717 11326 11327     1
11718 11326 11328     1
11719 11326 11327     1
11720 11326 11328     1
11721 11329 11330     1
11722 11329 11331     1
11723 11329 11330     1
11724 11329 11331     1
11725 11332 11333     1
11726 11332 11334     1
11727 11332 11333     1
11728 11332 11334     1
11729 11335 11336     1
11730 11335 11337     1
11731 11335 11336     1
11732 11335 11337     1
11733 11338 11339     1
11734 11338 11340     1
11735 11338 11339     1
11736 11338 11340     1
11737 11341 11342     1
11738 11341 11343     1
11739 11341 11342     1
11740 11341 11343     1
11741 11344 11345     1
11742 11344 11346     1
11743 11344 11345     1
11744 11344 11346     1
11745 11347 11348     1
11746 11347 11349     1
11747 11347 11348     1
11748 11347 11349     1
11749 11350 11351     1
11750 11350 11352     1
11751 11350 11351     1
11752 11350 11352     1
11753 11353 11354     1
11754 11353 11355     1
11755 11353 11354     1
11756 11353 11355     1
11757 11356 11357     1
11758 11356 11358     1
11759 11356 11357     1
11760 11356 11358     1
11761 11359 11360     1
11762 11359 11361     1
11763 11359 11360     1
11764 11359 11361     1
11765 11362 11363     1
11766 11362 11364     1
11767 11362 11363     1
11768 11362 11364     1
11769 11365 11366     1
11770 11365 11367     1
11771 11365 11366     1
11772 11365 11367     1
11773 11368 11369     1
11774 11368 11370     1
11775 11368 11369     1
11776 11368 11370     1
11777 11371 11372     1
11778 11371 11373     1
11779 11371 11372     1
11780 11371 11373     1
11781 11374 11375     1
11782 11374 11376     1
11783 11374 11375     1
11784 11374 11376     1
11785 11377 11378     1
11786 11377 11379     1
11787 11377 11378     1
11788 11377 11379     1
11789 11380 11381     1
11790 11380 11382     1
11791 11380 11381     1
11792 11380 11382     1
11793 11383 11384     1
11794 11383 11385     1
11795 11383 11384     1
11796 11383 11385     1
11797 11386 11387     1
11798 11386 11388     1
11799 11386 11387     1
11800 11386 11388     1
11801 11389 11390     1
11802 11389 11391     1
11803 11389 11390     1
11804 11389 11391     1
11805 11392 11393     1
11806 11392 11394     1
11807 11392 11393     1
11808 11392 11394     1
11809 11395 11396     1
11810 11395 11397     1
11811 11395 11396     1
11812 11395 11397     1
11813 11398 11399     1
11814 11398 11400     1
11815 11398 11399     1
11816 11398 11400     1
11817 11401 11402     1
11818 11401 11403     1
11819 11401 11402     1
11820 11401 11403     1
11821 11404 11405     1
11822 11404 11406     1
11823 11404 11405     1
11824 11404 11406     1
11825 11407 11408     1
11826 11407 11409     1
11827 11407 11408     1
11828 11407 11409     1
11829 11410 11411     1
11830 11410 11412     1
11831 11410 11411     1
11832 11410 11412     1
11833 11413 11414     1
11834 11413 11415     1
11835 11413 11414     1
11836 11413 11415     1
11837 11416 11417     1
11838 11416 11418     1
11839 11416 11417     1
11840 11416 11418     1
11841 11419 11420     1
11842 11419 11421     1
11843 11419 11420     1
11844 11419 11421     1
11845 11422 11423     1
11846 11422 11424     1
11847 11422 11423     1
11848 11422 11424     1
11849 11425 11426     1
11850 11425 11427     1
11851 11425 11426     1
11852 11425 11427     1
11853 11428 11429     1
11854 11428 11430     1
11855 11428 11429     1
11856 11428 11430     1
11857 11431 11432     1
11858 11431 11433     1
11859 11431 11432     1
11860 11431 11433     1
11861 11434 11435     1
11862 11434 11436     1
11863 11434 11435     1
11864 11434 11436     1
11865 11437 11438     1
11866 11437 11439     1
11867 11437 11438     1
11868 11437 11439     1
11869 11440 11441     1
11870 11440 11442     1
11871 11440 11441     1
11872 11440 11442     1
11873 11443 11444     1
11874 11443 11445     1
11875 11443 11444     1
11876 11443 11445     1
11877 11446 11447     1
11878 11446 11448     1
11879 11446 11447     1
11880 11446 11448     1
11881 11449 11450     1
11882 11449 11451     1
11883 11449 11450     1
11884 11449 11451     1
11885 11452 11453     1
11886 11452 11454     1
11887 11452 11453     1
11888 11452 11454     1
11889 11455 11456     1
11890 11455 11457     1
11891 11455 11456     1
11892 11455 11457     1
11893 11458 11459     1
11894 11458 11460     1
11895 11458 11459     1
11896 11458 11460     1
11897 11461 11462     1
11898 11461 11463     1
11899 11461 11462     1
11900 11461 11463     1
11901 11464 11465     1
11902 11464 11466     1
11903 11464 11465     1
11904 11464 11466     1
11905 11467 11468     1
11906 11467 11469     1
11907 11467 11468     1
11908 11467 11469     1
11909 11470 11471     1
11910 11470 11472     1
11911 11470 11471     1
11912 11470 11472     1
11913 11473 11474     1
11914 11473 11475     1
11915 11473 11474     1
11916 11473 11475     1
11917 11476 11477     1
11918 11476 11478     1
11919 11476 11477     1
11920 11476 11478     1
11921 11479 11480     1
11922 11479 11481     1
11923 11479 11480     1
11924 11479 11481     1
11925 11482 11483     1
11926 11482 11484     1
11927 11482 11483     1
11928 11482 11484     1
11929 11485 11486     1
11930 11485 11487     1
11931 11485 11486     1
11932 11485 11487     1
11933 11488 11489     1
11934 11488 11490     1
11935 11488 11489     1
11936 11488 11490     1
11937 11491 11492     1
11938 11491 11493     1
11939 11491 11492     1
11940 11491 11493     1
11941 11494 11495     1
11942 11494 11496     1
11943 11494 11495     1
11944 11494 11496     1
11945 11497 11498     1
11946 11497 11499     1
11947 11497 11498     1
11948 11497 11499     1
11949 11500 11501     1
11950 11500 11502     1
11951 11500 11501     1
11952 11500 11502     1
11953 11503 11504     1
11954 11503 11505     1
11955 11503 11504     1
11956 11503 11505     1
11957 11506 11507     1
11958 11506 11508     1
11959 11506 11507     1
11960 11506 11508     1
11961 11509 11510     1
11962 11509 11511     1
11963 11509 11510     1
11964 11509 11511     1
11965 11512 11513     1
11966 11512 11514     1
11967 11512 11513     1
11968 11512 11514     1
11969 11515 11516     1
11970 11515 11517     1
11971 11515 11516     1
11972 11515 11517     1
11973 11518 11519     1
11974 11518 11520     1
11975 11518 11519     1
11976 11518 11520     1
11977 11521 11522     1
11978 11521 11523     1
11979 11521 11522     1
11980 11521 11523     1
11981 11524 11525     1
11982 11524 11526     1
11983 11524 11525     1
11984 11524 11526     1
11985 11527 11528     1
11986 11527 11529     1
11987 11527 11528     1
11988 11527 11529     1
11989 11530 11531     1
11990 11530 11532     1
11991 11530 11531     1
11992 11530 11532     1
11993 11533 11534     1
11994 11533 11535     1
11995 11533 11534     1
11996 11533 11535     1
11997 11536 11537     1
11998 11536 11538     1
11999 11536 11537     1
12000 11536 11538     1
12001 11539 11540     1
12002 11539 11541     1
12003 11539 11540     1
12004 11539 11541     1
12005 11542 11543     1
12006 11542 11544     1
12007 11542 11543     1
12008 11542 11544     1
12009 11545 11546     1
12010 11545 11547     1
12011 11545 11546     1
12012 11545 11547     1
12013 11548 11549     1
12014 11548 11550     1
12015 11548 11549     1
12016 11548 11550     1
12017 11551 11552     1
12018 11551 11553     1
12019 11551 11552     1
12020 11551 11553     1
12021 11554 11555     1
12022 11554 11556     1
12023 11554 11555     1
12024 11554 11556     1
12025 11557 11558     1
12026 11557 11559     1
12027 11557 11558     1
12028 11557 11559     1
12029 11560 11561     1
12030 11560 11562     1
12031 11560 11561     1
12032 11560 11562     1
12033 11563 11564     1
12034 11563 11565     1
12035 11563 11564     1
12036 11563 11565     1
12037 11566 11567     1
12038 11566 11568     1
12039 11566 11567     1
12040 11566 11568     1
12041 11569 11570     1
12042 11569 11571     1
12043 11569 11570     1
12044 11569 11571     1
12045 11572 11573     1
12046 11572 11574     1
12047 11572 11573     1
12048 11572 11574     1
12049 11575 11576     1
12050 11575 11577     1
12051 11575 11576     1
12052 11575 11577     1
12053 11578 11579     1
12054 11578 11580     1
12055 11578 11579     1
12056 11578 11580     1
12057 11581 11582     1
12058 11581 11583     1
12059 11581 11582     1
12060 11581 11583     1
12061 11584 11585     1
12062 11584 11586     1
12063 11584 11585     1
12064 11584 11586     1
12065 11587 11588     1
12066 11587 11589     1
12067 11587 11588     1
12068 11587 11589     1
12069 11590 11591     1
12070 11590 11592     1
12071 11590 11591     1
12072 11590 11592     1
12073 11593 11594     1
12074 11593 11595     1
12075 11593 11594     1
12076 11593 11595     1
12077 11596 11597     1
12078 11596 11598     1
12079 11596 11597     1
12080 11596 11598     1
12081 11599 11600     1
12082 11599 11601     1
12083 11599 11600     1
12084 11599 11601     1
12085 11602 11603     1
12086 11602 11604     1
12087 11602 11603     1
12088 11602 11604     1
12089 11605 11606     1
12090 11605 11607     1
12091 11605 11606     1
12092 11605 11607     1
12093 11608 11609     1
12094 11608 11610     1
12095 11608 11609     1
12096 11608 11610     1
12097 11611 11612     1
12098 11611 11613     1
12099 11611 11612     1
12100 11611 11613     1
12101 11614 11615     1
12102 11614 11616     1
12103 11614 11615     1
12104 11614 11616     1
12105 11617 11618     1
12106 11617 11619     1
12107 11617 11618     1
12108 11617 11619     1
12109 11620 11621     1
12110 11620 11622     1
12111 11620 11621     1
12112 11620 11622     1
12113 11623 11624     1
12114 11623 11625     1
12115 11623 11624     1
12116 11623 11625     1
12117 11626 11627     1
12118 11626 11628     1
12119 11626 11627     1
12120 11626 11628     1
12121 11629 11630     1
12122 11629 11631     1
12123 11629 11630     1
12124 11629 11631     1
12125 11632 11633     1
12126 11632 11634     1
12127 11632 11633     1
12128 11632 11634     1
12129 11635 11636     1
12130 11635 11637     1
12131 11635 11636     1
12132 11635 11637     1
12133 11638 11639     1
12134 11638 11640     1
12135 11638 11639     1
12136 11638 11640     1
12137 11641 11642     1
12138 11641 11643     1
12139 11641 11642     1
12140 11641 11643     1
12141 11644 11645     1
12142 11644 11646     1
12143 11644 11645     1
12144 11644 11646     1
12145 11647 11648     1
12146 11647 11649     1
12147 11647 11648     1
12148 11647 11649     1
12149 11650 11651     1
12150 11650 11652     1
12151 11650 11651     1
12152 11650 11652     1
12153 11653 11654     1
12154 11653 11655     1
12155 11653 11654     1
12156 11653 11655     1
12157 11656 11657     1
12158 11656 11658     1
12159 11656 11657     1
12160 11656 11658     1
12161 11659 11660     1
12162 11659 11661     1
12163 11659 11660     1
12164 11659 11661     1
12165 11662 11663     1
12166 11662 11664     1
12167 11662 11663     1
12168 11662 11664     1
12169 11665 11666     1
12170 11665 11667     1
12171 11665 11666     1
12172 11665 11667     1
12173 11668 11669     1
12174 11668 11670     1
12175 11668 11669     1
12176 11668 11670     1
12177 11671 11672     1
12178 11671 11673     1
12179 11671 11672     1
12180 11671 11673     1
12181 11674 11675     1
12182 11674 11676     1
12183 11674 11675     1
12184 11674 11676     1
12185 11677 11678     1
12186 11677 11679     1
12187 11677 11678     1
12188 11677 11679     1
12189 11680 11681     1
12190 11680 11682     1
12191 11680 11681     1
12192 11680 11682     1
12193 11683 11684     1
12194 11683 11685     1
12195 11683 11684     1
12196 11683 11685     1
12197 11686 11687     1
12198 11686 11688     1
12199 11686 11687     1
12200 11686 11688     1
12201 11689 11690     1
12202 11689 11691     1
12203 11689 11690     1
12204 11689 11691     1
12205 11692 11693     1
12206 11692 11694     1
12207 11692 11693     1
12208 11692 11694     1
12209 11695 11696     1
12210 11695 11697     1
12211 11695 11696     1
12212 11695 11697     1
12213 11698 11699     1
12214 11698 11700     1
12215 11698 11699     1
12216 11698 11700     1
12217 11701 11702     1
12218 11701 11703     1
12219 11701 11702     1
12220 11701 11703     1
12221 11704 11705     1
12222 11704 11706     1
12223 11704 11705     1
12224 11704 11706     1
12225 11707 11708     1
12226 11707 11709     1
12227 11707 11708     1
12228 11707 11709     1
12229 11710 11711     1
12230 11710 11712     1
12231 11710 11711     1
12232 11710 11712     1
12233 11713 11714     1
12234 11713 11715     1
12235 11713 11714     1
12236 11713 11715     1
12237 11716 11717     1
12238 11716 11718     1
12239 11716 11717     1
12240 11716 11718     1
12241 11719 11720     1
12242 11719 11721     1
12243 11719 11720     1
12244 11719 11721     1
12245 11722 11723     1
12246 11722 11724     1
12247 11722 11723     1
12248 11722 11724     1
12249 11725 11726     1
12250 11725 11727     1
12251 11725 11726     1
12252 11725 11727     1
12253 11728 11729     1
12254 11728 11730     1
12255 11728 11729     1
12256 11728 11730     1
12257 11731 11732     1
12258 11731 11733     1
12259 11731 11732     1
12260 11731 11733     1
12261 11734 11735     1
12262 11734 11736     1
12263 11734 11735     1
12264 11734 11736     1
12265 11737 11738     1
12266 11737 11739     1
12267 11737 11738     1
12268 11737 11739     1
12269 11740 11741     1
12270 11740 11742     1
12271 11740 11741     1
12272 11740 11742     1
12273 11743 11744     1
12274 11743 11745     1
12275 11743 11744     1
12276 11743 11745     1
12277 11746 11747     1
12278 11746 11748     1
12279 11746 11747     1
12280 11746 11748     1
12281 11749 11750     1
12282 11749 11751     1
12283 11749 11750     1
12284 11749 11751     1
12285 11752 11753     1
12286 11752 11754     1
12287 11752 11753     1
12288 11752 11754     1
12289 11755 11756     1
12290 11755 11757     1
12291 11755 11756     1
12292 11755 11757     1
12293 11758 11759     1
12294 11758 11760     1
12295 11758 11759     1
12296 11758 11760     1
12297 11761 11762     1
12298 11761 11763     1
12299 11761 11762     1
12300 11761 11763     1
12301 11764 11765     1
12302 11764 11766     1
12303 11764 11765     1
12304 11764 11766     1
12305 11767 11768     1
12306 11767 11769     1
12307 11767 11768     1
12308 11767 11769     1
12309 11770 11771     1
12310 11770 11772     1
12311 11770 11771     1
12312 11770 11772     1
12313 11773 11774     1
12314 11773 11775     1
12315 11773 11774     1
12316 11773 11775     1
12317 11776 11777     1
12318 11776 11778     1
12319 11776 11777     1
12320 11776 11778     1
12321 11779 11780     1
12322 11779 11781     1
12323 11779 11780     1
12324 11779 11781     1
12325 11782 11783     1
12326 11782 11784     1
12327 11782 11783     1
12328 11782 11784     1
12329 11785 11786     1
12330 11785 11787     1
12331 11785 11786     1
12332 11785 11787     1
12333 11788 11789     1
12334 11788 11790     1
12335 11788 11789     1
12336 11788 11790     1
12337 11791 11792     1
12338 11791 11793     1
12339 11791 11792     1
12340 11791 11793     1
12341 11794 11795     1
12342 11794 11796     1
12343 11794 11795     1
12344 11794 11796     1
12345 11797 11798     1
12346 11797 11799     1
12347 11797 11798     1
12348 11797 11799     1
12349 11800 11801     1
12350 11800 11802     1
12351 11800 11801     1
12352 11800 11802     1
12353 11803 11804     1
12354 11803 11805     1
12355 11803 11804     1
12356 11803 11805     1
12357 11806 11807     1
12358 11806 11808     1
12359 11806 11807     1
12360 11806 11808     1
12361 11809 11810     1
12362 11809 11811     1
12363 11809 11810     1
12364 11809 11811     1
12365 11812 11813     1
12366 11812 11814     1
12367 11812 11813     1
12368 11812 11814     1
12369 11815 11816     1
12370 11815 11817     1
12371 11815 11816     1
12372 11815 11817     1
12373 11818 11819     1
12374 11818 11820     1
12375 11818 11819     1
12376 11818 11820     1
12377 11821 11822     1
12378 11821 11823     1
12379 11821 11822     1
12380 11821 11823     1
12381 11824 11825     1
12382 11824 11826     1
12383 11824 11825     1
12384 11824 11826     1
12385 11827 11828     1
12386 11827 11829     1
12387 11827 11828     1
12388 11827 11829     1
12389 11830 11831     1
12390 11830 11832     1
12391 11830 11831     1
12392 11830 11832     1
12393 11833 11834     1
12394 11833 11835     1
12395 11833 11834     1
12396 11833 11835     1
12397 11836 11837     1
12398 11836 11838     1
12399 11836 11837     1
12400 11836 11838     1
12401 11839 11840     1
12402 11839 11841     1
12403 11839 11840     1
12404 11839 11841     1
12405 11842 11843     1
12406 11842 11844     1
12407 11842 11843     1
12408 11842 11844     1
12409 11845 11846     1
12410 11845 11847     1
12411 11845 11846     1
12412 11845 11847     1
12413 11848 11849     1
12414 11848 11850     1
12415 11848 11849     1
12416 11848 11850     1
12417 11851 11852     1
12418 11851 11853     1
12419 11851 11852     1
12420 11851 11853     1
12421 11854 11855     1
12422 11854 11856     1
12423 11854 11855     1
12424 11854 11856     1
12425 11857 11858     1
12426 11857 11859     1
12427 11857 11858     1
12428 11857 11859     1
12429 11860 11861     1
12430 11860 11862     1
12431 11860 11861     1
12432 11860 11862     1
12433 11863 11864     1
12434 11863 11865     1
12435 11863 11864     1
12436 11863 11865     1
12437 11866 11867     1
12438 11866 11868     1
12439 11866 11867     1
12440 11866 11868     1
12441 11869 11870     1
12442 11869 11871     1
12443 11869 11870     1
12444 11869 11871     1
12445 11872 11873     1
12446 11872 11874     1
12447 11872 11873     1
12448 11872 11874     1
12449 11875 11876     1
12450 11875 11877     1
12451 11875 11876     1
12452 11875 11877     1
12453 11878 11879     1
12454 11878 11880     1
12455 11878 11879     1
12456 11878 11880     1
12457 11881 11882     1
12458 11881 11883     1
12459 11881 11882     1
12460 11881 11883     1
12461 11884 11885     1
12462 11884 11886     1
12463 11884 11885     1
12464 11884 11886     1
12465 11887 11888     1
12466 11887 11889     1
12467 11887 11888     1
12468 11887 11889     1
12469 11890 11891     1
12470 11890 11892     1
12471 11890 11891     1
12472 11890 11892     1
12473 11893 11894     1
12474 11893 11895     1
12475 11893 11894     1
12476 11893 11895     1
12477 11896 11897     1
12478 11896 11898     1
12479 11896 11897     1
12480 11896 11898     1
12481 11899 11900     1
12482 11899 11901     1
12483 11899 11900     1
12484 11899 11901     1
12485 11902 11903     1
12486 11902 11904     1
12487 11902 11903     1
12488 11902 11904     1
12489 11905 11906     1
12490 11905 11907     1
12491 11905 11906     1
12492 11905 11907     1
12493 11908 11909     1
12494 11908 11910     1
12495 11908 11909     1
12496 11908 11910     1
12497 11911 11912     1
12498 11911 11913     1
12499 11911 11912     1
12500 11911 11913     1
12501 11914 11915     1
12502 11914 11916     1
12503 11914 11915     1
12504 11914 11916     1
12505 11917 11918     1
12506 11917 11919     1
12507 11917 11918     1
12508 11917 11919     1
12509 11920 11921     1
12510 11920 11922     1
12511 11920 11921     1
12512 11920 11922     1
12513 11923 11924     1
12514 11923 11925     1
12515 11923 11924     1
12516 11923 11925     1
12517 11926 11927     1
12518 11926 11928     1
12519 11926 11927     1
12520 11926 11928     1
12521 11929 11930     1
12522 11929 11931     1
12523 11929 11930     1
12524 11929 11931     1
12525 11932 11933     1
12526 11932 11934     1
12527 11932 11933     1
12528 11932 11934     1
12529 11935 11936     1
12530 11935 11937     1
12531 11935 11936     1
12532 11935 11937     1
12533 11938 11939     1
12534 11938 11940     1
12535 11938 11939     1
12536 11938 11940     1
12537 11941 11942     1
12538 11941 11943     1
12539 11941 11942     1
12540 11941 11943     1
12541 11944 11945     1
12542 11944 11946     1
12543 11944 11945     1
12544 11944 11946     1
12545 11947 11948     1
12546 11947 11949     1
12547 11947 11948     1
12548 11947 11949     1
12549 11950 11951     1
12550 11950 11952     1
12551 11950 11951     1
12552 11950 11952     1
12553 11953 11954     1
12554 11953 11955     1
12555 11953 11954     1
12556 11953 11955     1
12557 11956 11957     1
12558 11956 11958     1
12559 11956 11957     1
12560 11956 11958     1
12561 11959 11960     1
12562 11959 11961     1
12563 11959 11960     1
12564 11959 11961     1
12565 11962 11963     1
12566 11962 11964     1
12567 11962 11963     1
12568 11962 11964     1
12569 11965 11966     1
12570 11965 11967     1
12571 11965 11966     1
12572 11965 11967     1
12573 11968 11969     1
12574 11968 11970     1
12575 11968 11969     1
12576 11968 11970     1
12577 11971 11972     1
12578 11971 11973     1
12579 11971 11972     1
12580 11971 11973     1
12581 11974 11975     1
12582 11974 11976     1
12583 11974 11975     1
12584 11974 11976     1
12585 11977 11978     1
12586 11977 11979     1
12587 11977 11978     1
12588 11977 11979     1
12589 11980 11981     1
12590 11980 11982     1
12591 11980 11981     1
12592 11980 11982     1
12593 11983 11984     1
12594 11983 11985     1
12595 11983 11984     1
12596 11983 11985     1
12597 11986 11987     1
12598 11986 11988     1
12599 11986 11987     1
12600 11986 11988     1
12601 11989 11990     1
12602 11989 11991     1
12603 11989 11990     1
12604 11989 11991     1
12605 11992 11993     1
12606 11992 11994     1
12607 11992 11993     1
12608 11992 11994     1
12609 11995 11996     1
12610 11995 11997     1
12611 11995 11996     1
12612 11995 11997     1
12613 11998 11999     1
12614 11998 12000     1
12615 11998 11999     1
12616 11998 12000     1
12617 12001 12002     1
12618 12001 12003     1
12619 12001 12002     1
12620 12001 12003     1
12621 12004 12005     1
12622 12004 12006     1
12623 12004 12005     1
12624 12004 12006     1
12625 12007 12008     1
12626 12007 12009     1
12627 12007 12008     1
12628 12007 12009     1
12629 12010 12011     1
12630 12010 12012     1
12631 12010 12011     1
12632 12010 12012     1
12633 12013 12014     1
12634 12013 12015     1
12635 12013 12014     1
12636 12013 12015     1
12637 12016 12017     1
12638 12016 12018     1
12639 12016 12017     1
12640 12016 12018     1
12641 12019 12020     1
12642 12019 12021     1
12643 12019 12020     1
12644 12019 12021     1
12645 12022 12023     1
12646 12022 12024     1
12647 12022 12023     1
12648 12022 12024     1
12649 12025 12026     1
12650 12025 12027     1
12651 12025 12026     1
12652 12025 12027     1
12653 12028 12029     1
12654 12028 12030     1
12655 12028 12029     1
12656 12028 12030     1
12657 12031 12032     1
12658 12031 12033     1
12659 12031 12032     1
12660 12031 12033     1
12661 12034 12035     1
12662 12034 12036     1
12663 12034 12035     1
12664 12034 12036     1
12665 12037 12038     1
12666 12037 12039     1
12667 12037 12038     1
12668 12037 12039     1
12669 12040 12041     1
12670 12040 12042     1
12671 12040 12041     1
12672 12040 12042     1
12673 12043 12044     1
12674 12043 12045     1
12675 12043 12044     1
12676 12043 12045     1
12677 12046 12047     1
12678 12046 12048     1
12679 12046 12047     1
12680 12046 12048     1
12681 12049 12050     1
12682 12049 12051     1
12683 12049 12050     1
12684 12049 12051     1
12685 12052 12053     1
12686 12052 12054     1
12687 12052 12053     1
12688 12052 12054     1
12689 12055 12056     1
12690 12055 12057     1
12691 12055 12056     1
12692 12055 12057     1
12693 12058 12059     1
12694 12058 12060     1
12695 12058 12059     1
12696 12058 12060     1
12697 12061 12062     1
12698 12061 12063     1
12699 12061 12062     1
12700 12061 12063     1
12701 12064 12065     1
12702 12064 12066     1
12703 12064 12065     1
12704 12064 12066     1
12705 12067 12068     1
12706 12067 12069     1
12707 12067 12068     1
12708 12067 12069     1
12709 12070 12071     1
12710 12070 12072     1
12711 12070 12071     1
12712 12070 12072     1
12713 12073 12074     1
12714 12073 12075     1
12715 12073 12074     1
12716 12073 12075     1
12717 12076 12077     1
12718 12076 12078     1
12719 12076 12077     1
12720 12076 12078     1
12721 12079 12080     1
12722 12079 12081     1
12723 12079 12080     1
12724 12079 12081     1
12725 12082 12083     1
12726 12082 12084     1
12727 12082 12083     1
12728 12082 12084     1
12729 12085 12086     1
12730 12085 12087     1
12731 12085 12086     1
12732 12085 12087     1
12733 12088 12089     1
12734 12088 12090     1
12735 12088 12089     1
12736 12088 12090     1
12737 12091 12092     1
12738 12091 12093     1
12739 12091 12092     1
12740 12091 12093     1
12741 12094 12095     1
12742 12094 12096     1
12743 12094 12095     1
12744 12094 12096     1
12745 12097 12098     1
12746 12097 12099     1
12747 12097 12098     1
12748 12097 12099     1
12749 12100 12101     1
12750 12100 12102     1
12751 12100 12101     1
12752 12100 12102     1
12753 12103 12104     1
12754 12103 12105     1
12755 12103 12104     1
12756 12103 12105     1
12757 12106 12107     1
12758 12106 12108     1
12759 12106 12107     1
12760 12106 12108     1
12761 12109 12110     1
12762 12109 12111     1
12763 12109 12110     1
12764 12109 12111     1
12765 12112 12113     1
12766 12112 12114     1
12767 12112 12113     1
12768 12112 12114     1
12769 12115 12116     1
12770 12115 12117     1
12771 12115 12116     1
12772 12115 12117     1
12773 12118 12119     1
12774 12118 12120     1
12775 12118 12119     1
12776 12118 12120     1
12777 12121 12122     1
12778 12121 12123     1
12779 12121 12122     1
12780 12121 12123     1
12781 12124 12125     1
12782 12124 12126     1
12783 12124 12125     1
12784 12124 12126     1
12785 12127 12128     1
12786 12127 12129     1
12787 12127 12128     1
12788 12127 12129     1
12789 12130 12131     1
12790 12130 12132     1
12791 12130 12131     1
12792 12130 12132     1
12793 12133 12134     1
12794 12133 12135     1
12795 12133 12134     1
12796 12133 12135     1
12797 12136 12137     1
12798 12136 12138     1
12799 12136 12137     1
12800 12136 12138     1
12801 12139 12140     1
12802 12139 12141     1
12803 12139 12140     1
12804 12139 12141     1
12805 12142 12143     1
12806 12142 12144     1
12807 12142 12143     1
12808 12142 12144     1
12809 12145 12146     1
12810 12145 12147     1
12811 12145 12146     1
12812 12145 12147     1
12813 12148 12149     1
12814 12148 12150     1
12815 12148 12149     1
12816 12148 12150     1
12817 12151 12152     1
12818 12151 12153     1
12819 12151 12152     1
12820 12151 12153     1
12821 12154 12155     1
12822 12154 12156     1
12823 12154 12155     1
12824 12154 12156     1
12825 12157 12158     1
12826 12157 12159     1
12827 12157 12158     1
12828 12157 12159     1
12829 12160 12161     1
12830 12160 12162     1
12831 12160 12161     1
12832 12160 12162     1
12833 12163 12164     1
12834 12163 12165     1
12835 12163 12164     1
12836 12163 12165     1
12837 12166 12167     1
12838 12166 12168     1
12839 12166 12167     1
12840 12166 12168     1
12841 12169 12170     1
12842 12169 12171     1
12843 12169 12170     1
12844 12169 12171     1
12845 12172 12173     1
12846 12172 12174     1
12847 12172 12173     1
12848 12172 12174     1
12849 12175 12176     1
12850 12175 12177     1
12851 12175 12176     1
12852 12175 12177     1
12853 12178 12179     1
12854 12178 12180     1
12855 12178 12179     1
12856 12178 12180     1
12857 12181 12182     1
12858 12181 12183     1
12859 12181 12182     1
12860 12181 12183     1
12861 12184 12185     1
12862 12184 12186     1
12863 12184 12185     1
12864 12184 12186     1
12865 12187 12188     1
12866 12187 12189     1
12867 12187 12188     1
12868 12187 12189     1
12869 12190 12191     1
12870 12190 12192     1
12871 12190 12191     1
12872 12190 12192     1
12873 12193 12194     1
12874 12193 12195     1
12875 12193 12194     1
12876 12193 12195     1
12877 12196 12197     1
12878 12196 12198     1
12879 12196 12197     1
12880 12196 12198     1
12881 12199 12200     1
12882 12199 12201     1
12883 12199 12200     1
12884 12199 12201     1
12885 12202 12203     1
12886 12202 12204     1
12887 12202 12203     1
12888 12202 12204     1
12889 12205 12206     1
12890 12205 12207     1
12891 12205 12206     1
12892 12205 12207     1
12893 12208 12209     1
12894 12208 12210     1
12895 12208 12209     1
12896 12208 12210     1
12897 12211 12212     1
12898 12211 12213     1
12899 12211 12212     1
12900 12211 12213     1
12901 12214 12215     1
12902 12214 12216     1
12903 12214 12215     1
12904 12214 12216     1
12905 12217 12218     1
12906 12217 12219     1
12907 12217 12218     1
12908 12217 12219     1
12909 12220 12221     1
12910 12220 12222     1
12911 12220 12221     1
12912 12220 12222     1
12913 12223 12224     1
12914 12223 12225     1
12915 12223 12224     1
12916 12223 12225     1
12917 12226 12227     1
12918 12226 12228     1
12919 12226 12227     1
12920 12226 12228     1
12921 12229 12230     1
12922 12229 12231     1
12923 12229 12230     1
12924 12229 12231     1
12925 12232 12233     1
12926 12232 12234     1
12927 12232 12233     1
12928 12232 12234     1
12929 12235 12236     1
12930 12235 12237     1
12931 12235 12236     1
12932 12235 12237     1
12933 12238 12239     1
12934 12238 12240     1
12935 12238 12239     1
12936 12238 12240     1
12937 12241 12242     1
12938 12241 12243     1
12939 12241 12242     1
12940 12241 12243     1
12941 12244 12245     1
12942 12244 12246     1
12943 12244 12245     1
12944 12244 12246     1
12945 12247 12248     1
12946 12247 12249     1
12947 12247 12248     1
12948 12247 12249     1
12949 12250 12251     1
12950 12250 12252     1
12951 12250 12251     1
12952 12250 12252     1
12953 12253 12254     1
12954 12253 12255     1
12955 12253 12254     1
12956 12253 12255     1
12957 12256 12257     1
12958 12256 12258     1
12959 12256 12257     1
12960 12256 12258     1
12961 12259 12260     1
12962 12259 12261     1
12963 12259 12260     1
12964 12259 12261     1
12965 12262 12263     1
12966 12262 12264     1
12967 12262 12263     1
12968 12262 12264     1
12969 12265 12266     1
12970 12265 12267     1
12971 12265 12266     1
12972 12265 12267     1
12973 12268 12269     1
12974 12268 12270     1
12975 12268 12269     1
12976 12268 12270     1
12977 12271 12272     1
12978 12271 12273     1
12979 12271 12272     1
12980 12271 12273     1
12981 12274 12275     1
12982 12274 12276     1
12983 12274 12275     1
12984 12274 12276     1
12985 12277 12278     1
12986 12277 12279     1
12987 12277 12278     1
12988 12277 12279     1
12989 12280 12281     1
12990 12280 12282     1
12991 12280 12281     1
12992 12280 12282     1
12993 12283 12284     1
12994 12283 12285     1
12995 12283 12284     1
12996 12283 12285     1
12997 12286 12287     1
12998 12286 12288     1
12999 12286 12287     1
13000 12286 12288     1
13001 12289 12290     1
13002 12289 12291     1
13003 12289 12290     1
13004 12289 12291     1
13005 12292 12293     1
13006 12292 12294     1
13007 12292 12293     1
13008 12292 12294     1
13009 12295 12296     1
13010 12295 12297     1
13011 12295 12296     1
13012 12295 12297     1
13013 12298 12299     1
13014 12298 12300     1
13015 12298 12299     1
13016 12298 12300     1
13017 12301 12302     1
13018 12301 12303     1
13019 12301 12302     1
13020 12301 12303     1
13021 12304 12305     1
13022 12304 12306     1
13023 12304 12305     1
13024 12304 12306     1
13025 12307 12308     1
13026 12307 12309     1
13027 12307 12308     1
13028 12307 12309     1
13029 12310 12311     1
13030 12310 12312     1
13031 12310 12311     1
13032 12310 12312     1
13033 12313 12314     1
13034 12313 12315     1
13035 12313 12314     1
13036 12313 12315     1
13037 12316 12317     1
13038 12316 12318     1
13039 12316 12317     1
13040 12316 12318     1
13041 12319 12320     1
13042 12319 12321     1
13043 12319 12320     1
13044 12319 12321     1
13045 12322 12323     1
13046 12322 12324     1
13047 12322 12323     1
13048 12322 12324     1
13049 12325 12326     1
13050 12325 12327     1
13051 12325 12326     1
13052 12325 12327     1
13053 12328 12329     1
13054 12328 12330     1
13055 12328 12329     1
13056 12328 12330     1
13057 12331 12332     1
13058 12331 12333     1
13059 12331 12332     1
13060 12331 12333     1
13061 12334 12335     1
13062 12334 12336     1
13063 12334 12335     1
13064 12334 12336     1
13065 12337 12338     1
13066 12337 12339     1
13067 12337 12338     1
13068 12337 12339     1
13069 12340 12341     1
13070 12340 12342     1
13071 12340 12341     1
13072 12340 12342     1
13073 12343 12344     1
13074 12343 12345     1
13075 12343 12344     1
13076 12343 12345     1
13077 12346 12347     1
13078 12346 12348     1
13079 12346 12347     1
13080 12346 12348     1
13081 12349 12350     1
13082 12349 12351     1
13083 12349 12350     1
13084 12349 12351     1
13085 12352 12353     1
13086 12352 12354     1
13087 12352 12353     1
13088 12352 12354     1
13089 12355 12356     1
13090 12355 12357     1
13091 12355 12356     1
13092 12355 12357     1
13093 12358 12359     1
13094 12358 12360     1
13095 12358 12359     1
13096 12358 12360     1
13097 12361 12362     1
13098 12361 12363     1
13099 12361 12362     1
13100 12361 12363     1
13101 12364 12365     1
13102 12364 12366     1
13103 12364 12365     1
13104 12364 12366     1
13105 12367 12368     1
13106 12367 12369     1
13107 12367 12368     1
13108 12367 12369     1
13109 12370 12371     1
13110 12370 12372     1
13111 12370 12371     1
13112 12370 12372     1
13113 12373 12374     1
13114 12373 12375     1
13115 12373 12374     1
13116 12373 12375     1
13117 12376 12377     1
13118 12376 12378     1
13119 12376 12377     1
13120 12376 12378     1
13121 12379 12380     1
13122 12379 12381     1
13123 12379 12380     1
13124 12379 12381     1
13125 12382 12383     1
13126 12382 12384     1
13127 12382 12383     1
13128 12382 12384     1
13129 12385 12386     1
13130 12385 12387     1
13131 12385 12386     1
13132 12385 12387     1
13133 12388 12389     1
13134 12388 12390     1
13135 12388 12389     1
13136 12388 12390     1
13137 12391 12392     1
13138 12391 12393     1
13139 12391 12392     1
13140 12391 12393     1
13141 12394 12395     1
13142 12394 12396     1
13143 12394 12395     1
13144 12394 12396     1
13145 12397 12398     1
13146 12397 12399     1
13147 12397 12398     1
13148 12397 12399     1
13149 12400 12401     1
13150 12400 12402     1
13151 12400 12401     1
13152 12400 12402     1
13153 12403 12404     1
13154 12403 12405     1
13155 12403 12404     1
13156 12403 12405     1
13157 12406 12407     1
13158 12406 12408     1
13159 12406 12407     1
13160 12406 12408     1
13161 12409 12410     1
13162 12409 12411     1
13163 12409 12410     1
13164 12409 12411     1
13165 12412 12413     1
13166 12412 12414     1
13167 12412 12413     1
13168 12412 12414     1
13169 12415 12416     1
13170 12415 12417     1
13171 12415 12416     1
13172 12415 12417     1
13173 12418 12419     1
13174 12418 12420     1
13175 12418 12419     1
13176 12418 12420     1
13177 12421 12422     1
13178 12421 12423     1
13179 12421 12422     1
13180 12421 12423     1
13181 12424 12425     1
13182 12424 12426     1
13183 12424 12425     1
13184 12424 12426     1
13185 12427 12428     1
13186 12427 12429     1
13187 12427 12428     1
13188 12427 12429     1
13189 12430 12431     1
13190 12430 12432     1
13191 12430 12431     1
13192 12430 12432     1
13193 12433 12434     1
13194 12433 12435     1
13195 12433 12434     1
13196 12433 12435     1
13197 12436 12437     1
13198 12436 12438     1
13199 12436 12437     1
13200 12436 12438     1
13201 12439 12440     1
13202 12439 12441     1
13203 12439 12440     1
13204 12439 12441     1
13205 12442 12443     1
13206 12442 12444     1
13207 12442 12443     1
13208 12442 12444     1
13209 12445 12446     1
13210 12445 12447     1
13211 12445 12446     1
13212 12445 12447     1
13213 12448 12449     1
13214 12448 12450     1
13215 12448 12449     1
13216 12448 12450     1
13217 12451 12452     1
13218 12451 12453     1
13219 12451 12452     1
13220 12451 12453     1
13221 12454 12455     1
13222 12454 12456     1
13223 12454 12455     1
13224 12454 12456     1
13225 12457 12458     1
13226 12457 12459     1
13227 12457 12458     1
13228 12457 12459     1
13229 12460 12461     1
13230 12460 12462     1
13231 12460 12461     1
13232 12460 12462     1
13233 12463 12464     1
13234 12463 12465     1
13235 12463 12464     1
13236 12463 12465     1
13237 12466 12467     1
13238 12466 12468     1
13239 12466 12467     1
13240 12466 12468     1
13241 12469 12470     1
13242 12469 12471     1
13243 12469 12470     1
13244 12469 12471     1
13245 12472 12473     1
13246 12472 12474     1
13247 12472 12473     1
13248 12472 12474     1
13249 12475 12476     1
13250 12475 12477     1
13251 12475 12476     1
13252 12475 12477     1
13253 12478 12479     1
13254 12478 12480     1
13255 12478 12479     1
13256 12478 12480     1
13257 12481 12482     1
13258 12481 12483     1
13259 12481 12482     1
13260 12481 12483     1
13261 12484 12485     1
13262 12484 12486     1
13263 12484 12485     1
13264 12484 12486     1
13265 12487 12488     1
13266 12487 12489     1
13267 12487 12488     1
13268 12487 12489     1
13269 12490 12491     1
13270 12490 12492     1
13271 12490 12491     1
13272 12490 12492     1
13273 12493 12494     1
13274 12493 12495     1
13275 12493 12494     1
13276 12493 12495     1
13277 12496 12497     1
13278 12496 12498     1
13279 12496 12497     1
13280 12496 12498     1
13281 12499 12500     1
13282 12499 12501     1
13283 12499 12500     1
13284 12499 12501     1
13285 12502 12503     1
13286 12502 12504     1
13287 12502 12503     1
13288 12502 12504     1
13289 12505 12506     1
13290 12505 12507     1
13291 12505 12506     1
13292 12505 12507     1
13293 12508 12509     1
13294 12508 12510     1
13295 12508 12509     1
13296 12508 12510     1
13297 12511 12512     1
13298 12511 12513     1
13299 12511 12512     1
13300 12511 12513     1
13301 12514 12515     1
13302 12514 12516     1
13303 12514 12515     1
13304 12514 12516     1
13305 12517 12518     1
13306 12517 12519     1
13307 12517 12518     1
13308 12517 12519     1
13309 12520 12521     1
13310 12520 12522     1
13311 12520 12521     1
13312 12520 12522     1
13313 12523 12524     1
13314 12523 12525     1
13315 12523 12524     1
13316 12523 12525     1
13317 12526 12527     1
13318 12526 12528     1
13319 12526 12527     1
13320 12526 12528     1
13321 12529 12530     1
13322 12529 12531     1
13323 12529 12530     1
13324 12529 12531     1
13325 12532 12533     1
13326 12532 12534     1
13327 12532 12533     1
13328 12532 12534     1
13329 12535 12536     1
13330 12535 12537     1
13331 12535 12536     1
13332 12535 12537     1
13333 12538 12539     1
13334 12538 12540     1
13335 12538 12539     1
13336 12538 12540     1
13337 12541 12542     1
13338 12541 12543     1
13339 12541 12542     1
13340 12541 12543     1
13341 12544 12545     1
13342 12544 12546     1
13343 12544 12545     1
13344 12544 12546     1
13345 12547 12548     1
13346 12547 12549     1
13347 12547 12548     1
13348 12547 12549     1
13349 12550 12551     1
13350 12550 12552     1
13351 12550 12551     1
13352 12550 12552     1
13353 12553 12554     1
13354 12553 12555     1
13355 12553 12554     1
13356 12553 12555     1
13357 12556 12557     1
13358 12556 12558     1
13359 12556 12557     1
13360 12556 12558     1
13361 12559 12560     1
13362 12559 12561     1
13363 12559 12560     1
13364 12559 12561     1
13365 12562 12563     1
13366 12562 12564     1
13367 12562 12563     1
13368 12562 12564     1
13369 12565 12566     1
13370 12565 12567     1
13371 12565 12566     1
13372 12565 12567     1
13373 12568 12569     1
13374 12568 12570     1
13375 12568 12569     1
13376 12568 12570     1
13377 12571 12572     1
13378 12571 12573     1
13379 12571 12572     1
13380 12571 12573     1
13381 12574 12575     1
13382 12574 12576     1
13383 12574 12575     1
13384 12574 12576     1
13385 12577 12578     1
13386 12577 12579     1
13387 12577 12578     1
13388 12577 12579     1
13389 12580 12581     1
13390 12580 12582     1
13391 12580 12581     1
13392 12580 12582     1
13393 12583 12584     1
13394 12583 12585     1
13395 12583 12584     1
13396 12583 12585     1
13397 12586 12587     1
13398 12586 12588     1
13399 12586 12587     1
13400 12586 12588     1
13401 12589 12590     1
13402 12589 12591     1
13403 12589 12590     1
13404 12589 12591     1
13405 12592 12593     1
13406 12592 12594     1
13407 12592 12593     1
13408 12592 12594     1
13409 12595 12596     1
13410 12595 12597     1
13411 12595 12596     1
13412 12595 12597     1
13413 12598 12599     1
13414 12598 12600     1
13415 12598 12599     1
13416 12598 12600     1
13417 12601 12602     1
13418 12601 12603     1
13419 12601 12602     1
13420 12601 12603     1
13421 12604 12605     1
13422 12604 12606     1
13423 12604 12605     1
13424 12604 12606     1
13425 12607 12608     1
13426 12607 12609     1
13427 12607 12608     1
13428 12607 12609     1
13429 12610 12611     1
13430 12610 12612     1
13431 12610 12611     1
13432 12610 12612     1
13433 12613 12614     1
13434 12613 12615     1
13435 12613 12614     1
13436 12613 12615     1
13437 12616 12617     1
13438 12616 12618     1
13439 12616 12617     1
13440 12616 12618     1
13441 12619 12620     1
13442 12619 12621     1
13443 12619 12620     1
13444 12619 12621     1
13445 12622 12623     1
13446 12622 12624     1
13447 12622 12623     1
13448 12622 12624     1
13449 12625 12626     1
13450 12625 12627     1
13451 12625 12626     1
13452 12625 12627     1
13453 12628 12629     1
13454 12628 12630     1
13455 12628 12629     1
13456 12628 12630     1
13457 12631 12632     1
13458 12631 12633     1
13459 12631 12632     1
13460 12631 12633     1
13461 12634 12635     1
13462 12634 12636     1
13463 12634 12635     1
13464 12634 12636     1
13465 12637 12638     1
13466 12637 12639     1
13467 12637 12638     1
13468 12637 12639     1
13469 12640 12641     1
13470 12640 12642     1
13471 12640 12641     1
13472 12640 12642     1
13473 12643 12644     1
13474 12643 12645     1
13475 12643 12644     1
13476 12643 12645     1
13477 12646 12647     1
13478 12646 12648     1
13479 12646 12647     1
13480 12646 12648     1
13481 12649 12650     1
13482 12649 12651     1
13483 12649 12650     1
13484 12649 12651     1
13485 12652 12653     1
13486 12652 12654     1
13487 12652 12653     1
13488 12652 12654     1
13489 12655 12656     1
13490 12655 12657     1
13491 12655 12656     1
13492 12655 12657     1
13493 12658 12659     1
13494 12658 12660     1
13495 12658 12659     1
13496 12658 12660     1
13497 12661 12662     1
13498 12661 12663     1
13499 12661 12662     1
13500 12661 12663     1
13501 12664 12665     1
13502 12664 12666     1
13503 12664 12665     1
13504 12664 12666     1
13505 12667 12668     1
13506 12667 12669     1
13507 12667 12668     1
13508 12667 12669     1
13509 12670 12671     1
13510 12670 12672     1
13511 12670 12671     1
13512 12670 12672     1
13513 12673 12674     1
13514 12673 12675     1
13515 12673 12674     1
13516 12673 12675     1
13517 12676 12677     1
13518 12676 12678     1
13519 12676 12677     1
13520 12676 12678     1
13521 12679 12680     1
13522 12679 12681     1
13523 12679 12680     1
13524 12679 12681     1
13525 12682 12683     1
13526 12682 12684     1
13527 12682 12683     1
13528 12682 12684     1
13529 12685 12686     1
13530 12685 12687     1
13531 12685 12686     1
13532 12685 12687     1
13533 12688 12689     1
13534 12688 12690     1
13535 12688 12689     1
13536 12688 12690     1
13537 12691 12692     1
13538 12691 12693     1
13539 12691 12692     1
13540 12691 12693     1
13541 12694 12695     1
13542 12694 12696     1
13543 12694 12695     1
13544 12694 12696     1
13545 12697 12698     1
13546 12697 12699     1
13547 12697 12698     1
13548 12697 12699     1
13549 12700 12701     1
13550 12700 12702     1
13551 12700 12701     1
13552 12700 12702     1
13553 12703 12704     1
13554 12703 12705     1
13555 12703 12704     1
13556 12703 12705     1
13557 12706 12707     1
13558 12706 12708     1
13559 12706 12707     1
13560 12706 12708     1
13561 12709 12710     1
13562 12709 12711     1
13563 12709 12710     1
13564 12709 12711     1
13565 12712 12713     1
13566 12712 12714     1
13567 12712 12713     1
13568 12712 12714     1
13569 12715 12716     1
13570 12715 12717     1
13571 12715 12716     1
13572 12715 12717     1
13573 12718 12719     1
13574 12718 12720     1
13575 12718 12719     1
13576 12718 12720     1
13577 12721 12722     1
13578 12721 12723     1
13579 12721 12722     1
13580 12721 12723     1
13581 12724 12725     1
13582 12724 12726     1
13583 12724 12725     1
13584 12724 12726     1
13585 12727 12728     1
13586 12727 12729     1
13587 12727 12728     1
13588 12727 12729     1
13589 12730 12731     1
13590 12730 12732     1
13591 12730 12731     1
13592 12730 12732     1
13593 12733 12734     1
13594 12733 12735     1
13595 12733 12734     1
13596 12733 12735     1
13597 12736 12737     1
13598 12736 12738     1
13599 12736 12737     1
13600 12736 12738     1
13601 12739 12740     1
13602 12739 12741     1
13603 12739 12740     1
13604 12739 12741     1
13605 12742 12743     1
13606 12742 12744     1
13607 12742 12743     1
13608 12742 12744     1
13609 12745 12746     1
13610 12745 12747     1
13611 12745 12746     1
13612 12745 12747     1
13613 12748 12749     1
13614 12748 12750     1
13615 12748 12749     1
13616 12748 12750     1
13617 12751 12752     1
13618 12751 12753     1
13619 12751 12752     1
13620 12751 12753     1
13621 12754 12755     1
13622 12754 12756     1
13623 12754 12755     1
13624 12754 12756     1
13625 12757 12758     1
13626 12757 12759     1
13627 12757 12758     1
13628 12757 12759     1
13629 12760 12761     1
13630 12760 12762     1
13631 12760 12761     1
13632 12760 12762     1
13633 12763 12764     1
13634 12763 12765     1
13635 12763 12764     1
13636 12763 12765     1
13637 12766 12767     1
13638 12766 12768     1
13639 12766 12767     1
13640 12766 12768     1
13641 12769 12770     1
13642 12769 12771     1
13643 12769 12770     1
13644 12769 12771     1
13645 12772 12773     1
13646 12772 12774     1
13647 12772 12773     1
13648 12772 12774     1
13649 12775 12776     1
13650 12775 12777     1
13651 12775 12776     1
13652 12775 12777     1
13653 12778 12779     1
13654 12778 12780     1
13655 12778 12779     1
13656 12778 12780     1
13657 12781 12782     1
13658 12781 12783     1
13659 12781 12782     1
13660 12781 12783     1
13661 12784 12785     1
13662 12784 12786     1
13663 12784 12785     1
13664 12784 12786     1
13665 12787 12788     1
13666 12787 12789     1
13667 12787 12788     1
13668 12787 12789     1
13669 12790 12791     1
13670 12790 12792     1
13671 12790 12791     1
13672 12790 12792     1
13673 12793 12794     1
13674 12793 12795     1
13675 12793 12794     1
13676 12793 12795     1
13677 12796 12797     1
13678 12796 12798     1
13679 12796 12797     1
13680 12796 12798     1
13681 12799 12800     1
13682 12799 12801     1
13683 12799 12800     1
13684 12799 12801     1
13685 12802 12803     1
13686 12802 12804     1
13687 12802 12803     1
13688 12802 12804     1
13689 12805 12806     1
13690 12805 12807     1
13691 12805 12806     1
13692 12805 12807     1
13693 12808 12809     1
13694 12808 12810     1
13695 12808 12809     1
13696 12808 12810     1
13697 12811 12812     1
13698 12811 12813     1
13699 12811 12812     1
13700 12811 12813     1
13701 12814 12815     1
13702 12814 12816     1
13703 12814 12815     1
13704 12814 12816     1
13705 12817 12818     1
13706 12817 12819     1
13707 12817 12818     1
13708 12817 12819     1
13709 12820 12821     1
13710 12820 12822     1
13711 12820 12821     1
13712 12820 12822     1
13713 12823 12824     1
13714 12823 12825     1
13715 12823 12824     1
13716 12823 12825     1
13717 12826 12827     1
13718 12826 12828     1
13719 12826 12827     1
13720 12826 12828     1
13721 12829 12830     1
13722 12829 12831     1
13723 12829 12830     1
13724 12829 12831     1
13725 12832 12833     1
13726 12832 12834     1
13727 12832 12833     1
13728 12832 12834     1
13729 12835 12836     1
13730 12835 12837     1
13731 12835 12836     1
13732 12835 12837     1
13733 12838 12839     1
13734 12838 12840     1
13735 12838 12839     1
13736 12838 12840     1
13737 12841 12842     1
13738 12841 12843     1
13739 12841 12842     1
13740 12841 12843     1
13741 12844 12845     1
13742 12844 12846     1
13743 12844 12845     1
13744 12844 12846     1
13745 12847 12848     1
13746 12847 12849     1
13747 12847 12848     1
13748 12847 12849     1
13749 12850 12851     1
13750 12850 12852     1
13751 12850 12851     1
13752 12850 12852     1
13753 12853 12854     1
13754 12853 12855     1
13755 12853 12854     1
13756 12853 12855     1
13757 12856 12857     1
13758 12856 12858     1
13759 12856 12857     1
13760 12856 12858     1
13761 12859 12860     1
13762 12859 12861     1
13763 12859 12860     1
13764 12859 12861     1
13765 12862 12863     1
13766 12862 12864     1
13767 12862 12863     1
13768 12862 12864     1
13769 12865 12866     1
13770 12865 12867     1
13771 12865 12866     1
13772 12865 12867     1
13773 12868 12869     1
13774 12868 12870     1
13775 12868 12869     1
13776 12868 12870     1
13777 12871 12872     1
13778 12871 12873     1
13779 12871 12872     1
13780 12871 12873     1
13781 12874 12875     1
13782 12874 12876     1
13783 12874 12875     1
13784 12874 12876     1
13785 12877 12878     1
13786 12877 12879     1
13787 12877 12878     1
13788 12877 12879     1
13789 12880 12881     1
13790 12880 12882     1
13791 12880 12881     1
13792 12880 12882     1
13793 12883 12884     1
13794 12883 12885     1
13795 12883 12884     1
13796 12883 12885     1
13797 12886 12887     1
13798 12886 12888     1
13799 12886 12887     1
13800 12886 12888     1
13801 12889 12890     1
13802 12889 12891     1
13803 12889 12890     1
13804 12889 12891     1
13805 12892 12893     1
13806 12892 12894     1
13807 12892 12893     1
13808 12892 12894     1
13809 12895 12896     1
13810 12895 12897     1
13811 12895 12896     1
13812 12895 12897     1
13813 12898 12899     1
13814 12898 12900     1
13815 12898 12899     1
13816 12898 12900     1
13817 12901 12902     1
13818 12901 12903     1
13819 12901 12902     1
13820 12901 12903     1
13821 12904 12905     1
13822 12904 12906     1
13823 12904 12905     1
13824 12904 12906     1
13825 12907 12908     1
13826 12907 12909     1
13827 12907 12908     1
13828 12907 12909     1
13829 12910 12911     1
13830 12910 12912     1
13831 12910 12911     1
13832 12910 12912     1
13833 12913 12914     1
13834 12913 12915     1
13835 12913 12914     1
13836 12913 12915     1
13837 12916 12917     1
13838 12916 12918     1
13839 12916 12917     1
13840 12916 12918     1
13841 12919 12920     1
13842 12919 12921     1
13843 12919 12920     1
13844 12919 12921     1
13845 12922 12923     1
13846 12922 12924     1
13847 12922 12923     1
13848 12922 12924     1
13849 12925 12926     1
13850 12925 12927     1
13851 12925 12926     1
13852 12925 12927     1
13853 12928 12929     1
13854 12928 12930     1
13855 12928 12929     1
13856 12928 12930     1
13857 12931 12932     1
13858 12931 12933     1
13859 12931 12932     1
13860 12931 12933     1
13861 12934 12935     1
13862 12934 12936     1
13863 12934 12935     1
13864 12934 12936     1
13865 12937 12938     1
13866 12937 12939     1
13867 12937 12938     1
13868 12937 12939     1
13869 12940 12941     1
13870 12940 12942     1
13871 12940 12941     1
13872 12940 12942     1
13873 12943 12944     1
13874 12943 12945     1
13875 12943 12944     1
13876 12943 12945     1
13877 12946 12947     1
13878 12946 12948     1
13879 12946 12947     1
13880 12946 12948     1
13881 12949 12950     1
13882 12949 12951     1
13883 12949 12950     1
13884 12949 12951     1
13885 12952 12953     1
13886 12952 12954     1
13887 12952 12953     1
13888 12952 12954     1
13889 12955 12956     1
13890 12955 12957     1
13891 12955 12956     1
13892 12955 12957     1
13893 12958 12959     1
13894 12958 12960     1
13895 12958 12959     1
13896 12958 12960     1
13897 12961 12962     1
13898 12961 12963     1
13899 12961 12962     1
13900 12961 12963     1
13901 12964 12965     1
13902 12964 12966     1
13903 12964 12965     1
13904 12964 12966     1
13905 12967 12968     1
13906 12967 12969     1
13907 12967 12968     1
13908 12967 12969     1
13909 12970 12971     1
13910 12970 12972     1
13911 12970 12971     1
13912 12970 12972     1
13913 12973 12974     1
13914 12973 12975     1
13915 12973 12974     1
13916 12973 12975     1
13917 12976 12977     1
13918 12976 12978     1
13919 12976 12977     1
13920 12976 12978     1
13921 12979 12980     1
13922 12979 12981     1
13923 12979 12980     1
13924 12979 12981     1
13925 12982 12983     1
13926 12982 12984     1
13927 12982 12983     1
13928 12982 12984     1
13929 12985 12986     1
13930 12985 12987     1
13931 12985 12986     1
13932 12985 12987     1
13933 12988 12989     1
13934 12988 12990     1
13935 12988 12989     1
13936 12988 12990     1
13937 12991 12992     1
13938 12991 12993     1
13939 12991 12992     1
13940 12991 12993     1
13941 12994 12995     1
13942 12994 12996     1
13943 12994 12995     1
13944 12994 12996     1
13945 12997 12998     1
13946 12997 12999     1
13947 12997 12998     1
13948 12997 12999     1
13949 13000 13001     1
13950 13000 13002     1
13951 13000 13001     1
13952 13000 13002     1
13953 13003 13004     1
13954 13003 13005     1
13955 13003 13004     1
13956 13003 13005     1
13957 13006 13007     1
13958 13006 13008     1
13959 13006 13007     1
13960 13006 13008     1
13961 13009 13010     1
13962 13009 13011     1
13963 13009 13010     1
13964 13009 13011     1
13965 13012 13013     1
13966 13012 13014     1
13967 13012 13013     1
13968 13012 13014     1
13969 13015 13016     1
13970 13015 13017     1
13971 13015 13016     1
13972 13015 13017     1
13973 13018 13019     1
13974 13018 13020     1
13975 13018 13019     1
13976 13018 13020     1
13977 13021 13022     1
13978 13021 13023     1
13979 13021 13022     1
13980 13021 13023     1
13981 13024 13025     1
13982 13024 13026     1
13983 13024 13025     1
13984 13024 13026     1
13985 13027 13028     1
13986 13027 13029     1
13987 13027 13028     1
13988 13027 13029     1
13989 13030 13031     1
13990 13030 13032     1
13991 13030 13031     1
13992 13030 13032     1
13993 13033 13034     1
13994 13033 13035     1
13995 13033 13034     1
13996 13033 13035     1
13997 13036 13037     1
13998 13036 13038     1
13999 13036 13037     1
14000 13036 13038     1
14001 13039 13040     1
14002 13039 13041     1
14003 13039 13040     1
14004 13039 13041     1
14005 13042 13043     1
14006 13042 13044     1
14007 13042 13043     1
14008 13042 13044     1
14009 13045 13046     1
14010 13045 13047     1
14011 13045 13046     1
14012 13045 13047     1
14013 13048 13049     1
14014 13048 13050     1
14015 13048 13049     1
14016 13048 13050     1
14017 13051 13052     1
14018 13051 13053     1
14019 13051 13052     1
14020 13051 13053     1
14021 13054 13055     1
14022 13054 13056     1
14023 13054 13055     1
14024 13054 13056     1
14025 13057 13058     1
14026 13057 13059     1
14027 13057 13058     1
14028 13057 13059     1
14029 13060 13061     1
14030 13060 13062     1
14031 13060 13061     1
14032 13060 13062     1
14033 13063 13064     1
14034 13063 13065     1
14035 13063 13064     1
14036 13063 13065     1
14037 13066 13067     1
14038 13066 13068     1
14039 13066 13067     1
14040 13066 13068     1
14041 13069 13070     1
14042 13069 13071     1
14043 13069 13070     1
14044 13069 13071     1
14045 13072 13073     1
14046 13072 13074     1
14047 13072 13073     1
14048 13072 13074     1
14049 13075 13076     1
14050 13075 13077     1
14051 13075 13076     1
14052 13075 13077     1
14053 13078 13079     1
14054 13078 13080     1
14055 13078 13079     1
14056 13078 13080     1
14057 13081 13082     1
14058 13081 13083     1
14059 13081 13082     1
14060 13081 13083     1
14061 13084 13085     1
14062 13084 13086     1
14063 13084 13085     1
14064 13084 13086     1
14065 13087 13088     1
14066 13087 13089     1
14067 13087 13088     1
14068 13087 13089     1
14069 13090 13091     1
14070 13090 13092     1
14071 13090 13091     1
14072 13090 13092     1
14073 13093 13094     1
14074 13093 13095     1
14075 13093 13094     1
14076 13093 13095     1
14077 13096 13097     1
14078 13096 13098     1
14079 13096 13097     1
14080 13096 13098     1
14081 13099 13100     1
14082 13099 13101     1
14083 13099 13100     1
14084 13099 13101     1
14085 13102 13103     1
14086 13102 13104     1
14087 13102 13103     1
14088 13102 13104     1
14089 13105 13106     1
14090 13105 13107     1
14091 13105 13106     1
14092 13105 13107     1
14093 13108 13109     1
14094 13108 13110     1
14095 13108 13109     1
14096 13108 13110     1
14097 13111 13112     1
14098 13111 13113     1
14099 13111 13112     1
14100 13111 13113     1
14101 13114 13115     1
14102 13114 13116     1
14103 13114 13115     1
14104 13114 13116     1
14105 13117 13118     1
14106 13117 13119     1
14107 13117 13118     1
14108 13117 13119     1
14109 13120 13121     1
14110 13120 13122     1
14111 13120 13121     1
14112 13120 13122     1
14113 13123 13124     1
14114 13123 13125     1
14115 13123 13124     1
14116 13123 13125     1
14117 13126 13127     1
14118 13126 13128     1
14119 13126 13127     1
14120 13126 13128     1
14121 13129 13130     1
14122 13129 13131     1
14123 13129 13130     1
14124 13129 13131     1
14125 13132 13133     1
14126 13132 13134     1
14127 13132 13133     1
14128 13132 13134     1
14129 13135 13136     1
14130 13135 13137     1
14131 13135 13136     1
14132 13135 13137     1
14133 13138 13139     1
14134 13138 13140     1
14135 13138 13139     1
14136 13138 13140     1
14137 13141 13142     1
14138 13141 13143     1
14139 13141 13142     1
14140 13141 13143     1
14141 13144 13145     1
14142 13144 13146     1
14143 13144 13145     1
14144 13144 13146     1
14145 13147 13148     1
14146 13147 13149     1
14147 13147 13148     1
14148 13147 13149     1
14149 13150 13151     1
14150 13150 13152     1
14151 13150 13151     1
14152 13150 13152     1
14153 13153 13154     1
14154 13153 13155     1
14155 13153 13154     1
14156 13153 13155     1
14157 13156 13157     1
14158 13156 13158     1
14159 13156 13157     1
14160 13156 13158     1
14161 13159 13160     1
14162 13159 13161     1
14163 13159 13160     1
14164 13159 13161     1
14165 13162 13163     1
14166 13162 13164     1
14167 13162 13163     1
14168 13162 13164     1
14169 13165 13166     1
14170 13165 13167     1
14171 13165 13166     1
14172 13165 13167     1
14173 13168 13169     1
14174 13168 13170     1
14175 13168 13169     1
14176 13168 13170     1
14177 13171 13172     1
14178 13171 13173     1
14179 13171 13172     1
14180 13171 13173     1
14181 13174 13175     1
14182 13174 13176     1
14183 13174 13175     1
14184 13174 13176     1
14185 13177 13178     1
14186 13177 13179     1
14187 13177 13178     1
14188 13177 13179     1
14189 13180 13181     1
14190 13180 13182     1
14191 13180 13181     1
14192 13180 13182     1
14193 13183 13184     1
14194 13183 13185     1
14195 13183 13184     1
14196 13183 13185     1
14197 13186 13187     1
14198 13186 13188     1
14199 13186 13187     1
14200 13186 13188     1
14201 13189 13190     1
14202 13189 13191     1
14203 13189 13190     1
14204 13189 13191     1
14205 13192 13193     1
14206 13192 13194     1
14207 13192 13193     1
14208 13192 13194     1
14209 13195 13196     1
14210 13195 13197     1
14211 13195 13196     1
14212 13195 13197     1
14213 13198 13199     1
14214 13198 13200     1
14215 13198 13199     1
14216 13198 13200     1
14217 13201 13202     1
14218 13201 13203     1
14219 13201 13202     1
14220 13201 13203     1
14221 13204 13205     1
14222 13204 13206     1
14223 13204 13205     1
14224 13204 13206     1
14225 13207 13208     1
14226 13207 13209     1
14227 13207 13208     1
14228 13207 13209     1
14229 13210 13211     1
14230 13210 13212     1
14231 13210 13211     1
14232 13210 13212     1
14233 13213 13214     1
14234 13213 13215     1
14235 13213 13214     1
14236 13213 13215     1
14237 13216 13217     1
14238 13216 13218     1
14239 13216 13217     1
14240 13216 13218     1
14241 13219 13220     1
14242 13219 13221     1
14243 13219 13220     1
14244 13219 13221     1
14245 13222 13223     1
14246 13222 13224     1
14247 13222 13223     1
14248 13222 13224     1
14249 13225 13226     1
14250 13225 13227     1
14251 13225 13226     1
14252 13225 13227     1
14253 13228 13229     1
14254 13228 13230     1
14255 13228 13229     1
14256 13228 13230     1
14257 13231 13232     1
14258 13231 13233     1
14259 13231 13232     1
14260 13231 13233     1
14261 13234 13235     1
14262 13234 13236     1
14263 13234 13235     1
14264 13234 13236     1
14265 13237 13238     1
14266 13237 13239     1
14267 13237 13238     1
14268 13237 13239     1
14269 13240 13241     1
14270 13240 13242     1
14271 13240 13241     1
14272 13240 13242     1
14273 13243 13244     1
14274 13243 13245     1
14275 13243 13244     1
14276 13243 13245     1
14277 13246 13247     1
14278 13246 13248     1
14279 13246 13247     1
14280 13246 13248     1
14281 13249 13250     1
14282 13249 13251     1
14283 13249 13250     1
14284 13249 13251     1
14285 13252 13253     1
14286 13252 13254     1
14287 13252 13253     1
14288 13252 13254     1
14289 13255 13256     1
14290 13255 13257     1
14291 13255 13256     1
14292 13255 13257     1
14293 13258 13259     1
14294 13258 13260     1
14295 13258 13259     1
14296 13258 13260     1
14297 13261 13262     1
14298 13261 13263     1
14299 13261 13262     1
14300 13261 13263     1
14301 13264 13265     1
14302 13264 13266     1
14303 13264 13265     1
14304 13264 13266     1
14305 13267 13268     1
14306 13267 13269     1
14307 13267 13268     1
14308 13267 13269     1
14309 13270 13271     1
14310 13270 13272     1
14311 13270 13271     1
14312 13270 13272     1
14313 13273 13274     1
14314 13273 13275     1
14315 13273 13274     1
14316 13273 13275     1
14317 13276 13277     1
14318 13276 13278     1
14319 13276 13277     1
14320 13276 13278     1
14321 13279 13280     1
14322 13279 13281     1
14323 13279 13280     1
14324 13279 13281     1
14325 13282 13283     1
14326 13282 13284     1
14327 13282 13283     1
14328 13282 13284     1
14329 13285 13286     1
14330 13285 13287     1
14331 13285 13286     1
14332 13285 13287     1
14333 13288 13289     1
14334 13288 13290     1
14335 13288 13289     1
14336 13288 13290     1
14337 13291 13292     1
14338 13291 13293     1
14339 13291 13292     1
14340 13291 13293     1
14341 13294 13295     1
14342 13294 13296     1
14343 13294 13295     1
14344 13294 13296     1
14345 13297 13298     1
14346 13297 13299     1
14347 13297 13298     1
14348 13297 13299     1
14349 13300 13301     1
14350 13300 13302     1
14351 13300 13301     1
14352 13300 13302     1
14353 13303 13304     1
14354 13303 13305     1
14355 13303 13304     1
14356 13303 13305     1
14357 13306 13307     1
14358 13306 13308     1
14359 13306 13307     1
14360 13306 13308     1
14361 13309 13310     1
14362 13309 13311     1
14363 13309 13310     1
14364 13309 13311     1
14365 13312 13313     1
14366 13312 13314     1
14367 13312 13313     1
14368 13312 13314     1
14369 13315 13316     1
14370 13315 13317     1
14371 13315 13316     1
14372 13315 13317     1
14373 13318 13319     1
14374 13318 13320     1
14375 13318 13319     1
14376 13318 13320     1
14377 13321 13322     1
14378 13321 13323     1
14379 13321 13322     1
14380 13321 13323     1
14381 13324 13325     1
14382 13324 13326     1
14383 13324 13325     1
14384 13324 13326     1
14385 13327 13328     1
14386 13327 13329     1
14387 13327 13328     1
14388 13327 13329     1
14389 13330 13331     1
14390 13330 13332     1
14391 13330 13331     1
14392 13330 13332     1
14393 13333 13334     1
14394 13333 13335     1
14395 13333 13334     1
14396 13333 13335     1
14397 13336 13337     1
14398 13336 13338     1
14399 13336 13337     1
14400 13336 13338     1
14401 13339 13340     1
14402 13339 13341     1
14403 13339 13340     1
14404 13339 13341     1
14405 13342 13343     1
14406 13342 13344     1
14407 13342 13343     1
14408 13342 13344     1
14409 13345 13346     1
14410 13345 13347     1
14411 13345 13346     1
14412 13345 13347     1
14413 13348 13349     1
14414 13348 13350     1
14415 13348 13349     1
14416 13348 13350     1
14417 13351 13352     1
14418 13351 13353     1
14419 13351 13352     1
14420 13351 13353     1
14421 13354 13355     1
14422 13354 13356     1
14423 13354 13355     1
14424 13354 13356     1
14425 13357 13358     1
14426 13357 13359     1
14427 13357 13358     1
14428 13357 13359     1
14429 13360 13361     1
14430 13360 13362     1
14431 13360 13361     1
14432 13360 13362     1
14433 13363 13364     1
14434 13363 13365     1
14435 13363 13364     1
14436 13363 13365     1
14437 13366 13367     1
14438 13366 13368     1
14439 13366 13367     1
14440 13366 13368     1
14441 13369 13370     1
14442 13369 13371     1
14443 13369 13370     1
14444 13369 13371     1
14445 13372 13373     1
14446 13372 13374     1
14447 13372 13373     1
14448 13372 13374     1
14449 13375 13376     1
14450 13375 13377     1
14451 13375 13376     1
14452 13375 13377     1
14453 13378 13379     1
14454 13378 13380     1
14455 13378 13379     1
14456 13378 13380     1
14457 13381 13382     1
14458 13381 13383     1
14459 13381 13382     1
14460 13381 13383     1
14461 13384 13385     1
14462 13384 13386     1
14463 13384 13385     1
14464 13384 13386     1
14465 13387 13388     1
14466 13387 13389     1
14467 13387 13388     1
14468 13387 13389     1
14469 13390 13391     1
14470 13390 13392     1
14471 13390 13391     1
14472 13390 13392     1
14473 13393 13394     1
14474 13393 13395     1
14475 13393 13394     1
14476 13393 13395     1
14477 13396 13397     1
14478 13396 13398     1
14479 13396 13397     1
14480 13396 13398     1
14481 13399 13400     1
14482 13399 13401     1
14483 13399 13400     1
14484 13399 13401     1
14485 13402 13403     1
14486 13402 13404     1
14487 13402 13403     1
14488 13402 13404     1
14489 13405 13406     1
14490 13405 13407     1
14491 13405 13406     1
14492 13405 13407     1
14493 13408 13409     1
14494 13408 13410     1
14495 13408 13409     1
14496 13408 13410     1
14497 13411 13412     1
14498 13411 13413     1
14499 13411 13412     1
14500 13411 13413     1
14501 13414 13415     1
14502 13414 13416     1
14503 13414 13415     1
14504 13414 13416     1
14505 13417 13418     1
14506 13417 13419     1
14507 13417 13418     1
14508 13417 13419     1
14509 13420 13421     1
14510 13420 13422     1
14511 13420 13421     1
14512 13420 13422     1
14513 13423 13424     1
14514 13423 13425     1
14515 13423 13424     1
14516 13423 13425     1
14517 13426 13427     1
14518 13426 13428     1
14519 13426 13427     1
14520 13426 13428     1
14521 13429 13430     1
14522 13429 13431     1
14523 13429 13430     1
14524 13429 13431     1
14525 13432 13433     1
14526 13432 13434     1
14527 13432 13433     1
14528 13432 13434     1
14529 13435 13436     1
14530 13435 13437     1
14531 13435 13436     1
14532 13435 13437     1
14533 13438 13439     1
14534 13438 13440     1
14535 13438 13439     1
14536 13438 13440     1
14537 13441 13442     1
14538 13441 13443     1
14539 13441 13442     1
14540 13441 13443     1
14541 13444 13445     1
14542 13444 13446     1
14543 13444 13445     1
14544 13444 13446     1
14545 13447 13448     1
14546 13447 13449     1
14547 13447 13448     1
14548 13447 13449     1
14549 13450 13451     1
14550 13450 13452     1
14551 13450 13451     1
14552 13450 13452     1
14553 13453 13454     1
14554 13453 13455     1
14555 13453 13454     1
14556 13453 13455     1
14557 13456 13457     1
14558 13456 13458     1
14559 13456 13457     1
14560 13456 13458     1
14561 13459 13460     1
14562 13459 13461     1
14563 13459 13460     1
14564 13459 13461     1
14565 13462 13463     1
14566 13462 13464     1
14567 13462 13463     1
14568 13462 13464     1
14569 13465 13466     1
14570 13465 13467     1
14571 13465 13466     1
14572 13465 13467     1
14573 13468 13469     1
14574 13468 13470     1
14575 13468 13469     1
14576 13468 13470     1
14577 13471 13472     1
14578 13471 13473     1
14579 13471 13472     1
14580 13471 13473     1
14581 13474 13475     1
14582 13474 13476     1
14583 13474 13475     1
14584 13474 13476     1
14585 13477 13478     1
14586 13477 13479     1
14587 13477 13478     1
14588 13477 13479     1
14589 13480 13481     1
14590 13480 13482     1
14591 13480 13481     1
14592 13480 13482     1
14593 13483 13484     1
14594 13483 13485     1
14595 13483 13484     1
14596 13483 13485     1
14597 13486 13487     1
14598 13486 13488     1
14599 13486 13487     1
14600 13486 13488     1
14601 13489 13490     1
14602 13489 13491     1
14603 13489 13490     1
14604 13489 13491     1
14605 13492 13493     1
14606 13492 13494     1
14607 13492 13493     1
14608 13492 13494     1
14609 13495 13496     1
14610 13495 13497     1
14611 13495 13496     1
14612 13495 13497     1
14613 13498 13499     1
14614 13498 13500     1
14615 13498 13499     1
14616 13498 13500     1
14617 13501 13502     1
14618 13501 13503     1
14619 13501 13502     1
14620 13501 13503     1
14621 13504 13505     1
14622 13504 13506     1
14623 13504 13505     1
14624 13504 13506     1
14625 13507 13508     1
14626 13507 13509     1
14627 13507 13508     1
14628 13507 13509     1
14629 13510 13511     1
14630 13510 13512     1
14631 13510 13511     1
14632 13510 13512     1
14633 13513 13514     1
14634 13513 13515     1
14635 13513 13514     1
14636 13513 13515     1
14637 13516 13517     1
14638 13516 13518     1
14639 13516 13517     1
14640 13516 13518     1
14641 13519 13520     1
14642 13519 13521     1
14643 13519 13520     1
14644 13519 13521     1
14645 13522 13523     1
14646 13522 13524     1
14647 13522 13523     1
14648 13522 13524     1
14649 13525 13526     1
14650 13525 13527     1
14651 13525 13526     1
14652 13525 13527     1
14653 13528 13529     1
14654 13528 13530     1
14655 13528 13529     1
14656 13528 13530     1
14657 13531 13532     1
14658 13531 13533     1
14659 13531 13532     1
14660 13531 13533     1
14661 13534 13535     1
14662 13534 13536     1
14663 13534 13535     1
14664 13534 13536     1
14665 13537 13538     1
14666 13537 13539     1
14667 13537 13538     1
14668 13537 13539     1
14669 13540 13541     1
14670 13540 13542     1
14671 13540 13541     1
14672 13540 13542     1
14673 13543 13544     1
14674 13543 13545     1
14675 13543 13544     1
14676 13543 13545     1
14677 13546 13547     1
14678 13546 13548     1
14679 13546 13547     1
14680 13546 13548     1
14681 13549 13550     1
14682 13549 13551     1
14683 13549 13550     1
14684 13549 13551     1
14685 13552 13553     1
14686 13552 13554     1
14687 13552 13553     1
14688 13552 13554     1
14689 13555 13556     1
14690 13555 13557     1
14691 13555 13556     1
14692 13555 13557     1
14693 13558 13559     1
14694 13558 13560     1
14695 13558 13559     1
14696 13558 13560     1
14697 13561 13562     1
14698 13561 13563     1
14699 13561 13562     1
14700 13561 13563     1
14701 13564 13565     1
14702 13564 13566     1
14703 13564 13565     1
14704 13564 13566     1
14705 13567 13568     1
14706 13567 13569     1
14707 13567 13568     1
14708 13567 13569     1
14709 13570 13571     1
14710 13570 13572     1
14711 13570 13571     1
14712 13570 13572     1
14713 13573 13574     1
14714 13573 13575     1
14715 13573 13574     1
14716 13573 13575     1
14717 13576 13577     1
14718 13576 13578     1
14719 13576 13577     1
14720 13576 13578     1
14721 13579 13580     1
14722 13579 13581     1
14723 13579 13580     1
14724 13579 13581     1
14725 13582 13583     1
14726 13582 13584     1
14727 13582 13583     1
14728 13582 13584     1
14729 13585 13586     1
14730 13585 13587     1
14731 13585 13586     1
14732 13585 13587     1
14733 13588 13589     1
14734 13588 13590     1
14735 13588 13589     1
14736 13588 13590     1
14737 13591 13592     1
14738 13591 13593     1
14739 13591 13592     1
14740 13591 13593     1
14741 13594 13595     1
14742 13594 13596     1
14743 13594 13595     1
14744 13594 13596     1
14745 13597 13598     1
14746 13597 13599     1
14747 13597 13598     1
14748 13597 13599     1
14749 13600 13601     1
14750 13600 13602     1
14751 13600 13601     1
14752 13600 13602     1
14753 13603 13604     1
14754 13603 13605     1
14755 13603 13604     1
14756 13603 13605     1
14757 13606 13607     1
14758 13606 13608     1
14759 13606 13607     1
14760 13606 13608     1
14761 13609 13610     1
14762 13609 13611     1
14763 13609 13610     1
14764 13609 13611     1
14765 13612 13613     1
14766 13612 13614     1
14767 13612 13613     1
14768 13612 13614     1
14769 13615 13616     1
14770 13615 13617     1
14771 13615 13616     1
14772 13615 13617     1
14773 13618 13619     1
14774 13618 13620     1
14775 13618 13619     1
14776 13618 13620     1
14777 13621 13622     1
14778 13621 13623     1
14779 13621 13622     1
14780 13621 13623     1
14781 13624 13625     1
14782 13624 13626     1
14783 13624 13625     1
14784 13624 13626     1
14785 13627 13628     1
14786 13627 13629     1
14787 13627 13628     1
14788 13627 13629     1
14789 13630 13631     1
14790 13630 13632     1
14791 13630 13631     1
14792 13630 13632     1
14793 13633 13634     1
14794 13633 13635     1
14795 13633 13634     1
14796 13633 13635     1
14797 13636 13637     1
14798 13636 13638     1
14799 13636 13637     1
14800 13636 13638     1
14801 13639 13640     1
14802 13639 13641     1
14803 13639 13640     1
14804 13639 13641     1
14805 13642 13643     1
14806 13642 13644     1
14807 13642 13643     1
14808 13642 13644     1
14809 13645 13646     1
14810 13645 13647     1
14811 13645 13646     1
14812 13645 13647     1
14813 13648 13649     1
14814 13648 13650     1
14815 13648 13649     1
14816 13648 13650     1
14817 13651 13652     1
14818 13651 13653     1
14819 13651 13652     1
14820 13651 13653     1
14821 13654 13655     1
14822 13654 13656     1
14823 13654 13655     1
14824 13654 13656     1
14825 13657 13658     1
14826 13657 13659     1
14827 13657 13658     1
14828 13657 13659     1
14829 13660 13661     1
14830 13660 13662     1
14831 13660 13661     1
14832 13660 13662     1
14833 13663 13664     1
14834 13663 13665     1
14835 13663 13664     1
14836 13663 13665     1
14837 13666 13667     1
14838 13666 13668     1
14839 13666 13667     1
14840 13666 13668     1
14841 13669 13670     1
14842 13669 13671     1
14843 13669 13670     1
14844 13669 13671     1
14845 13672 13673     1
14846 13672 13674     1
14847 13672 13673     1
14848 13672 13674     1
14849 13675 13676     1
14850 13675 13677     1
14851 13675 13676     1
14852 13675 13677     1
14853 13678 13679     1
14854 13678 13680     1
14855 13678 13679     1
14856 13678 13680     1
14857 13681 13682     1
14858 13681 13683     1
14859 13681 13682     1
14860 13681 13683     1
14861 13684 13685     1
14862 13684 13686     1
14863 13684 13685     1
14864 13684 13686     1
14865 13687 13688     1
14866 13687 13689     1
14867 13687 13688     1
14868 13687 13689     1
14869 13690 13691     1
14870 13690 13692     1
14871 13690 13691     1
14872 13690 13692     1
14873 13693 13694     1
14874 13693 13695     1
14875 13693 13694     1
14876 13693 13695     1
14877 13696 13697     1
14878 13696 13698     1
14879 13696 13697     1
14880 13696 13698     1
14881 13699 13700     1
14882 13699 13701     1
14883 13699 13700     1
14884 13699 13701     1
14885 13702 13703     1
14886 13702 13704     1
14887 13702 13703     1
14888 13702 13704     1
14889 13705 13706     1
14890 13705 13707     1
14891 13705 13706     1
14892 13705 13707     1
14893 13708 13709     1
14894 13708 13710     1
14895 13708 13709     1
14896 13708 13710     1
14897 13711 13712     1
14898 13711 13713     1
14899 13711 13712     1
14900 13711 13713     1
14901 13714 13715     1
14902 13714 13716     1
14903 13714 13715     1
14904 13714 13716     1
14905 13717 13718     1
14906 13717 13719     1
14907 13717 13718     1
14908 13717 13719     1
14909 13720 13721     1
14910 13720 13722     1
14911 13720 13721     1
14912 13720 13722     1
14913 13723 13724     1
14914 13723 13725     1
14915 13723 13724     1
14916 13723 13725     1
14917 13726 13727     1
14918 13726 13728     1
14919 13726 13727     1
14920 13726 13728     1
14921 13729 13730     1
14922 13729 13731     1
14923 13729 13730     1
14924 13729 13731     1
14925 13732 13733     1
14926 13732 13734     1
14927 13732 13733     1
14928 13732 13734     1
14929 13735 13736     1
14930 13735 13737     1
14931 13735 13736     1
14932 13735 13737     1
14933 13738 13739     1
14934 13738 13740     1
14935 13738 13739     1
14936 13738 13740     1
14937 13741 13742     1
14938 13741 13743     1
14939 13741 13742     1
14940 13741 13743     1
14941 13744 13745     1
14942 13744 13746     1
14943 13744 13745     1
14944 13744 13746     1
14945 13747 13748     1
14946 13747 13749     1
14947 13747 13748     1
14948 13747 13749     1
14949   114  1735     1
14950   158  1756     1
14951   270  1777     1
14952   314  1798     1
14953   420  1819     1
14954   446  1840     1
14955   468  1861     1
14956   630  1882     1
14957   668  1903     1
14958   758  1924     1
