@<TRIPOS>MOLECULE
MOL
4608 3312 1 0 0
SMALL
USER_CHARGES


@<TRIPOS>ATOM
  1    OW  11.9600   4.1800   1.3200 O     1   SOL   0.0000
  2   HW1  11.8500   3.9900   0.3900 H     1   SOL   0.5897
  3   HW2  11.5300   5.0200   1.4500 H     1   SOL   0.5897
  4    MW  11.8900   4.2600   1.2100 M     1   SOL  -1.1794
  5    OW   4.8900   0.6600   2.0600 O     1   SOL   0.0000
  6   HW1   5.5800   0.5900   2.7200 H     1   SOL   0.5897
  7   HW2   5.3600   0.6200   1.2200 H     1   SOL   0.5897
  8    MW   5.0500   0.6400   2.0400 M     1   SOL  -1.1794
  9    OW   1.2500   4.0400   6.8800 O     1   SOL   0.0000
 10   HW1   1.2400   3.3300   6.2400 H     1   SOL   0.5897
 11   HW2   1.3200   3.6000   7.7300 H     1   SOL   0.5897
 12    MW   1.2600   3.8900   6.9100 M     1   SOL  -1.1794
 13    OW   9.4600   4.4300   9.0500 O     1   SOL   0.0000
 14   HW1   9.9600   4.9200   8.4000 H     1   SOL   0.5897
 15   HW2   9.2400   5.0700   9.7300 H     1   SOL   0.5897
 16    MW   9.5000   4.5800   9.0600 M     1   SOL  -1.1794
 17    OW   3.3600   3.1600   2.7200 O     1   SOL   0.0000
 18   HW1   3.8100   2.3900   2.3700 H     1   SOL   0.5897
 19   HW2   3.1700   3.7000   1.9500 H     1   SOL   0.5897
 20    MW   3.4000   3.1300   2.5700 M     1   SOL  -1.1794
 21    OW   1.0600   9.3100   7.1500 O     1   SOL   0.0000
 22   HW1   1.9000   8.8600   7.1100 H     1   SOL   0.5897
 23   HW2   1.1600   9.9400   7.8700 H     1   SOL   0.5897
 24    MW   1.1900   9.3300   7.2400 M     1   SOL  -1.1794
 25    OW   3.0600  10.5600   2.6200 O     1   SOL   0.0000
 26   HW1   2.3600  10.5800   3.2800 H     1   SOL   0.5897
 27   HW2   2.6700  10.1200   1.8700 H     1   SOL   0.5897
 28    MW   2.9100  10.5100   2.6100 M     1   SOL  -1.1794
 29    OW   7.0400  10.6000   5.1900 O     1   SOL   0.0000
 30   HW1   7.0200  11.5100   4.8700 H     1   SOL   0.5897
 31   HW2   7.1100  10.6900   6.1400 H     1   SOL   0.5897
 32    MW   7.0500  10.7400   5.2800 M     1   SOL  -1.1794
 33    OW   8.7800   6.7100  10.6400 O     1   SOL   0.0000
 34   HW1   9.0000   7.5100  10.1700 H     1   SOL   0.5897
 35   HW2   9.1700   6.8200  11.5100 H     1   SOL   0.5897
 36    MW   8.8600   6.8300  10.6900 M     1   SOL  -1.1794
 37    OW  10.7400   2.7500  10.5300 O     1   SOL   0.0000
 38   HW1  10.2100   2.0200  10.8700 H     1   SOL   0.5897
 39   HW2  10.1300   3.2700  10.0100 H     1   SOL   0.5897
 40    MW  10.5900   2.7200  10.5100 M     1   SOL  -1.1794
 41    OW   4.6500   5.1200   4.2000 O     1   SOL   0.0000
 42   HW1   4.1400   4.4300   3.7800 H     1   SOL   0.5897
 43   HW2   4.1600   5.3300   4.9900 H     1   SOL   0.5897
 44    MW   4.5100   5.0500   4.2500 M     1   SOL  -1.1794
 45    OW   3.4800   5.5400   6.5500 O     1   SOL   0.0000
 46   HW1   4.0300   5.2500   7.2700 H     1   SOL   0.5897
 47   HW2   2.6700   5.0400   6.6500 H     1   SOL   0.5897
 48    MW   3.4400   5.4300   6.6600 M     1   SOL  -1.1794
 49    OW   4.7000   9.0000   4.2300 O     1   SOL   0.0000
 50   HW1   5.3800   9.6500   4.3600 H     1   SOL   0.5897
 51   HW2   4.0500   9.4500   3.6800 H     1   SOL   0.5897
 52    MW   4.7000   9.1500   4.1700 M     1   SOL  -1.1794
 53    OW   4.7400   4.8700   9.2000 O     1   SOL   0.0000
 54   HW1   4.2200   4.3200   9.7800 H     1   SOL   0.5897
 55   HW2   5.4500   4.2900   8.9000 H     1   SOL   0.5897
 56    MW   4.7700   4.7100   9.2400 M     1   SOL  -1.1794
 57    OW   9.6100   0.5800   2.5700 O     1   SOL   0.0000
 58   HW1  10.1000   1.3700   2.8100 H     1   SOL   0.5897
 59   HW2  10.1300  -0.1400   2.9200 H     1   SOL   0.5897
 60    MW   9.7500   0.5900   2.6500 M     1   SOL  -1.1794
 61    OW   6.9000   3.1500   5.2500 O     1   SOL   0.0000
 62   HW1   6.8900   3.1700   6.2100 H     1   SOL   0.5897
 63   HW2   6.3300   3.8800   4.9900 H     1   SOL   0.5897
 64    MW   6.8200   3.2500   5.3500 M     1   SOL  -1.1794
 65    OW  10.4100  10.6300   2.3400 O     1   SOL   0.0000
 66   HW1   9.9200  11.4400   2.2400 H     1   SOL   0.5897
 67   HW2   9.9000  10.1100   2.9600 H     1   SOL   0.5897
 68    MW  10.2800  10.6700   2.4100 M     1   SOL  -1.1794
 69    OW   7.0600  10.5800   8.0200 O     1   SOL   0.0000
 70   HW1   7.1500  11.4000   8.5100 H     1   SOL   0.5897
 71   HW2   6.2700  10.1700   8.3800 H     1   SOL   0.5897
 72    MW   6.9600  10.6400   8.1300 M     1   SOL  -1.1794
 73    OW  10.8000   5.5400   6.8700 O     1   SOL   0.0000
 74   HW1  11.5900   5.0100   6.7800 H     1   SOL   0.5897
 75   HW2  10.3100   5.3700   6.0600 H     1   SOL   0.5897
 76    MW  10.8400   5.4400   6.7500 M     1   SOL  -1.1794
 77    OW   5.0500   1.0400  11.1800 O     1   SOL   0.0000
 78   HW1   5.8700   0.8800  10.7100 H     1   SOL   0.5897
 79   HW2   5.2900   0.9900  12.1100 H     1   SOL   0.5897
 80    MW   5.1900   1.0100  11.2400 M     1   SOL  -1.1794
 81    OW   7.0200   3.4000   8.0900 O     1   SOL   0.0000
 82   HW1   7.0700   2.5300   8.4800 H     1   SOL   0.5897
 83   HW2   7.7900   3.8600   8.4500 H     1   SOL   0.5897
 84    MW   7.1300   3.3500   8.1900 M     1   SOL  -1.1794
 85    OW   5.1100   9.2900   9.1900 O     1   SOL   0.0000
 86   HW1   5.4200   8.4800   9.5900 H     1   SOL   0.5897
 87   HW2   4.5300   9.0100   8.4800 H     1   SOL   0.5897
 88    MW   5.0700   9.1400   9.1500 M     1   SOL  -1.1794
 89    OW  11.8900   8.9200   0.7200 O     1   SOL   0.0000
 90   HW1  11.5400   8.0500   0.9000 H     1   SOL   0.5897
 91   HW2  11.3200   9.5100   1.2200 H     1   SOL   0.5897
 92    MW  11.7700   8.8900   0.8100 M     1   SOL  -1.1794
 93    OW  11.1700  10.2400  10.7400 O     1   SOL   0.0000
 94   HW1  11.9500  10.3800  10.2100 H     1   SOL   0.5897
 95   HW2  11.4900   9.8500  11.5500 H     1   SOL   0.5897
 96    MW  11.3100  10.2100  10.7800 M     1   SOL  -1.1794
 97    OW   1.3600   2.2600   4.6000 O     1   SOL   0.0000
 98   HW1   2.0100   2.5900   3.9800 H     1   SOL   0.5897
 99   HW2   0.5200   2.5600   4.2400 H     1   SOL   0.5897
100    MW   1.3300   2.3400   4.4600 M     1   SOL  -1.1794
101    OW  11.0000   2.7800   3.5200 O     1   SOL   0.0000
102   HW1  10.4800   3.3900   4.0500 H     1   SOL   0.5897
103   HW2  11.2100   3.2700   2.7300 H     1   SOL   0.5897
104    MW  10.9600   2.9300   3.4900 M     1   SOL  -1.1794
105    OW  10.6400   8.2800   6.6200 O     1   SOL   0.0000
106   HW1  10.7600   7.3300   6.5900 H     1   SOL   0.5897
107   HW2  10.2300   8.4500   7.4600 H     1   SOL   0.5897
108    MW  10.6000   8.1800   6.7300 M     1   SOL  -1.1794
109    OW  10.3900   6.6000   1.0400 O     1   SOL   0.0000
110   HW1   9.7000   6.6200   1.7000 H     1   SOL   0.5897
111   HW2  10.0200   6.0900   0.3100 H     1   SOL   0.5897
112    MW  10.2500   6.5300   1.0300 M     1   SOL  -1.1794
113    OW   1.4100  11.0900   9.3700 O     1   SOL   0.0000
114   HW1   1.4500  12.0300   9.1800 H     1   SOL   0.5897
115   HW2   0.7200  11.0100  10.0300 H     1   SOL   0.5897
116    MW   1.3200  11.2100   9.4300 M     1   SOL  -1.1794
117    OW   9.4300   8.8200   9.0500 O     1   SOL   0.0000
118   HW1   9.8900   9.2700   9.7600 H     1   SOL   0.5897
119   HW2   8.7900   9.4600   8.7300 H     1   SOL   0.5897
120    MW   9.4000   8.9700   9.1000 M     1   SOL  -1.1794
121    OW   7.1600   0.6700   3.8800 O     1   SOL   0.0000
122   HW1   7.1500   1.4500   4.4400 H     1   SOL   0.5897
123   HW2   8.0000   0.7000   3.4400 H     1   SOL   0.5897
124    MW   7.2700   0.7800   3.9000 M     1   SOL  -1.1794
125    OW   0.8200   2.5600   9.2300 O     1   SOL   0.0000
126   HW1   0.8900   1.6100   9.1900 H     1   SOL   0.5897
127   HW2   1.5900   2.8400   9.7400 H     1   SOL   0.5897
128    MW   0.9300   2.4700   9.3000 M     1   SOL  -1.1794
129    OW   3.6500   8.1600   6.9300 O     1   SOL   0.0000
130   HW1   3.4700   7.2200   6.8600 H     1   SOL   0.5897
131   HW2   4.1200   8.3700   6.1200 H     1   SOL   0.5897
132    MW   3.6900   8.0600   6.8100 M     1   SOL  -1.1794
133    OW   5.7300   7.0100   2.5300 O     1   SOL   0.0000
134   HW1   5.3600   7.7700   2.9800 H     1   SOL   0.5897
135   HW2   5.4000   6.2600   3.0200 H     1   SOL   0.5897
136    MW   5.6400   7.0100   2.6600 M     1   SOL  -1.1794
137    OW   6.0000   6.9300  10.5700 O     1   SOL   0.0000
138   HW1   5.6700   6.1000  10.2300 H     1   SOL   0.5897
139   HW2   6.9400   6.7800  10.6700 H     1   SOL   0.5897
140    MW   6.0800   6.7900  10.5400 M     1   SOL  -1.1794
141    OW   3.0700   3.1600  10.7600 O     1   SOL   0.0000
142   HW1   3.7400   2.4800  10.8400 H     1   SOL   0.5897
143   HW2   2.9100   3.4400  11.6600 H     1   SOL   0.5897
144    MW   3.1400   3.1000  10.8900 M     1   SOL  -1.1794
145    OW   1.3300  10.7700   4.8100 O     1   SOL   0.0000
146   HW1   1.2000  10.4600   5.7100 H     1   SOL   0.5897
147   HW2   1.2400  11.7200   4.8700 H     1   SOL   0.5897
148    MW   1.3000  10.8500   4.9400 M     1   SOL  -1.1794
149    OW   1.9000   9.2300   0.4400 O     1   SOL   0.0000
150   HW1   1.1000   8.7500   0.6800 H     1   SOL   0.5897
151   HW2   2.5800   8.5600   0.4100 H     1   SOL   0.5897
152    MW   1.8800   9.0700   0.4700 M     1   SOL  -1.1794
153    OW   1.9800   4.2800   0.4300 O     1   SOL   0.0000
154   HW1   1.9600   3.6200  -0.2600 H     1   SOL   0.5897
155   HW2   1.1300   4.2000   0.8600 H     1   SOL   0.5897
156    MW   1.8600   4.1800   0.3900 M     1   SOL  -1.1794
157    OW   9.2400   4.8300   4.7200 O     1   SOL   0.0000
158   HW1   8.9100   5.5400   4.1700 H     1   SOL   0.5897
159   HW2   8.5100   4.2100   4.7600 H     1   SOL   0.5897
160    MW   9.1000   4.8400   4.6500 M     1   SOL  -1.1794
161    OW   9.3100   9.2400   4.3500 O     1   SOL   0.0000
162   HW1   9.6600   8.8700   5.1600 H     1   SOL   0.5897
163   HW2   8.5600   9.7500   4.6300 H     1   SOL   0.5897
164    MW   9.2600   9.2600   4.5000 M     1   SOL  -1.1794
165    OW   8.5200   6.9600   2.9400 O     1   SOL   0.0000
166   HW1   7.6100   7.0400   2.6500 H     1   SOL   0.5897
167   HW2   8.7300   7.8200   3.3100 H     1   SOL   0.5897
168    MW   8.4200   7.0900   2.9500 M     1   SOL  -1.1794
169    OW   3.4800  10.4000  10.9100 O     1   SOL   0.0000
170   HW1   2.7100  10.7300  10.4500 H     1   SOL   0.5897
171   HW2   4.0200  10.0100  10.2200 H     1   SOL   0.5897
172    MW   3.4500  10.3900  10.7500 M     1   SOL  -1.1794
173    OW   7.2000   0.9600   9.4900 O     1   SOL   0.0000
174   HW1   7.1600   0.1300   9.0200 H     1   SOL   0.5897
175   HW2   7.9500   0.8600  10.0800 H     1   SOL   0.5897
176    MW   7.3000   0.8300   9.5100 M     1   SOL  -1.1794
177    OW   3.4000   6.9000   0.4700 O     1   SOL   0.0000
178   HW1   2.8200   6.1600   0.6500 H     1   SOL   0.5897
179   HW2   4.0900   6.8200   1.1300 H     1   SOL   0.5897
180    MW   3.4200   6.7900   0.5900 M     1   SOL  -1.1794
181    OW   9.2200   0.5900  11.1900 O     1   SOL   0.0000
182   HW1   9.2200   0.5000  12.1500 H     1   SOL   0.5897
183   HW2   9.7400  -0.1500  10.8800 H     1   SOL   0.5897
184    MW   9.2900   0.4800  11.2800 M     1   SOL  -1.1794
185    OW  23.3500   4.7300   1.2100 O     1   SOL   0.0000
186   HW1  22.7900   4.5200   0.4600 H     1   SOL   0.5897
187   HW2  23.2300   5.6700   1.3500 H     1   SOL   0.5897
188    MW  23.2600   4.8300   1.1300 M     1   SOL  -1.1794
189    OW  16.7600   0.5800   2.3400 O     1   SOL   0.0000
190   HW1  16.6800   0.9300   1.4500 H     1   SOL   0.5897
191   HW2  16.3300  -0.2800   2.3000 H     1   SOL   0.5897
192    MW  16.6900   0.5100   2.2100 M     1   SOL  -1.1794
193    OW  12.7900   3.5700   6.7700 O     1   SOL   0.0000
194   HW1  12.9600   3.0600   7.5600 H     1   SOL   0.5897
195   HW2  12.5700   2.9100   6.1100 H     1   SOL   0.5897
196    MW  12.7900   3.4100   6.7900 M     1   SOL  -1.1794
197    OW  21.1400   4.6100   9.2600 O     1   SOL   0.0000
198   HW1  21.7000   4.0500   9.8000 H     1   SOL   0.5897
199   HW2  21.6800   4.8100   8.4900 H     1   SOL   0.5897
200    MW  21.2900   4.5600   9.2300 M     1   SOL  -1.1794
201    OW  15.5900   2.6900   3.6500 O     1   SOL   0.0000
202   HW1  15.4600   3.2800   2.9100 H     1   SOL   0.5897
203   HW2  16.0700   1.9400   3.2900 H     1   SOL   0.5897
204    MW  15.6400   2.6700   3.5000 M     1   SOL  -1.1794
205    OW  12.7400   9.8900   6.6500 O     1   SOL   0.0000
206   HW1  11.9600   9.3400   6.5900 H     1   SOL   0.5897
207   HW2  12.6900  10.2700   7.5300 H     1   SOL   0.5897
208    MW  12.6300   9.8700   6.7600 M     1   SOL  -1.1794
209    OW  15.1200  10.7000   3.0500 O     1   SOL   0.0000
210   HW1  14.9900  10.0800   2.3400 H     1   SOL   0.5897
211   HW2  14.2500  10.8200   3.4400 H     1   SOL   0.5897
212    MW  14.9900  10.6400   3.0100 M     1   SOL  -1.1794
213    OW  19.1000  10.4500   5.7400 O     1   SOL   0.0000
214   HW1  19.7600   9.8600   5.3800 H     1   SOL   0.5897
215   HW2  18.2700  10.1000   5.4200 H     1   SOL   0.5897
216    MW  19.0800  10.3300   5.6500 M     1   SOL  -1.1794
217    OW  20.5100   6.7600  10.7300 O     1   SOL   0.0000
218   HW1  20.7500   6.1500  10.0400 H     1   SOL   0.5897
219   HW2  19.5500   6.7000  10.7800 H     1   SOL   0.5897
220    MW  20.4100   6.6700  10.6500 M     1   SOL  -1.1794
221    OW  22.8500   3.3700  11.0200 O     1   SOL   0.0000
222   HW1  23.5600   3.0600  10.4600 H     1   SOL   0.5897
223   HW2  22.5400   2.5900  11.4700 H     1   SOL   0.5897
224    MW  22.9000   3.2300  11.0100 M     1   SOL  -1.1794
225    OW  16.7000   4.6000   5.0400 O     1   SOL   0.0000
226   HW1  16.2600   3.9100   4.5500 H     1   SOL   0.5897
227   HW2  16.1200   4.7900   5.7800 H     1   SOL   0.5897
228    MW  16.5600   4.5300   5.0700 M     1   SOL  -1.1794
229    OW  15.1500   5.3400   7.2600 O     1   SOL   0.0000
230   HW1  15.1400   6.3000   7.2200 H     1   SOL   0.5897
231   HW2  14.3000   5.0800   6.9100 H     1   SOL   0.5897
232    MW  15.0300   5.4300   7.2100 M     1   SOL  -1.1794
233    OW  16.7500   9.2400   4.7500 O     1   SOL   0.0000
234   HW1  16.9700   8.4300   4.2800 H     1   SOL   0.5897
235   HW2  16.2500   9.7500   4.1200 H     1   SOL   0.5897
236    MW  16.7100   9.2000   4.6000 M     1   SOL  -1.1794
237    OW  16.8600   4.4300   9.3100 O     1   SOL   0.0000
238   HW1  17.6100   3.9100   9.0200 H     1   SOL   0.5897
239   HW2  16.2000   4.3000   8.6300 H     1   SOL   0.5897
240    MW  16.8700   4.3400   9.1800 M     1   SOL  -1.1794
241    OW  21.1700   0.9300   2.3100 O     1   SOL   0.0000
242   HW1  21.7500   0.1700   2.3600 H     1   SOL   0.5897
243   HW2  20.5900   0.8400   3.0600 H     1   SOL   0.5897
244    MW  21.1700   0.8100   2.4100 M     1   SOL  -1.1794
245    OW  19.1600   3.3400   5.9300 O     1   SOL   0.0000
246   HW1  18.3800   3.8600   5.7400 H     1   SOL   0.5897
247   HW2  19.1100   2.6000   5.3300 H     1   SOL   0.5897
248    MW  19.0500   3.3100   5.8300 M     1   SOL  -1.1794
249    OW  23.2400   9.5800   3.1600 O     1   SOL   0.0000
250   HW1  23.8500   9.9000   3.8200 H     1   SOL   0.5897
251   HW2  22.8500  10.3700   2.7900 H     1   SOL   0.5897
252    MW  23.2700   9.7300   3.2000 M     1   SOL  -1.1794
253    OW  18.9100  10.0600   8.4800 O     1   SOL   0.0000
254   HW1  19.6600   9.5000   8.6800 H     1   SOL   0.5897
255   HW2  18.9500  10.1900   7.5300 H     1   SOL   0.5897
256    MW  19.0200  10.0000   8.3800 M     1   SOL  -1.1794
257    OW  22.6700   5.1900   6.9200 O     1   SOL   0.0000
258   HW1  23.5300   4.7900   6.7900 H     1   SOL   0.5897
259   HW2  22.2300   5.0800   6.0800 H     1   SOL   0.5897
260    MW  22.7300   5.1200   6.7900 M     1   SOL  -1.1794
261    OW  16.6800   0.6000  11.6500 O     1   SOL   0.0000
262   HW1  16.2300  -0.2000  11.4000 H     1   SOL   0.5897
263   HW2  16.5600   0.6600  12.6000 H     1   SOL   0.5897
264    MW  16.6000   0.5000  11.7500 M     1   SOL  -1.1794
265    OW  19.0600   2.8100   8.8500 O     1   SOL   0.0000
266   HW1  19.2600   2.7400   7.9100 H     1   SOL   0.5897
267   HW2  19.6500   3.5000   9.1600 H     1   SOL   0.5897
268    MW  19.1700   2.8900   8.7600 M     1   SOL  -1.1794
269    OW  16.6100   8.8900   9.3100 O     1   SOL   0.0000
270   HW1  16.0400   8.7500   8.5500 H     1   SOL   0.5897
271   HW2  17.3700   9.3600   8.9500 H     1   SOL   0.5897
272    MW  16.6300   8.9400   9.1600 M     1   SOL  -1.1794
273    OW  23.3200   7.6500   1.1400 O     1   SOL   0.0000
274   HW1  23.3200   8.1200   1.9700 H     1   SOL   0.5897
275   HW2  22.5500   7.9800   0.6800 H     1   SOL   0.5897
276    MW  23.2200   7.7600   1.1900 M     1   SOL  -1.1794
277    OW  22.9100  10.6400  10.8500 O     1   SOL   0.0000
278   HW1  23.1000  10.1400  11.6400 H     1   SOL   0.5897
279   HW2  22.3200  10.0800  10.3500 H     1   SOL   0.5897
280    MW  22.8600  10.5000  10.8900 M     1   SOL  -1.1794
281    OW  13.0300   1.5700   4.6500 O     1   SOL   0.0000
282   HW1  12.2900   2.0200   4.2600 H     1   SOL   0.5897
283   HW2  13.8000   2.0200   4.3000 H     1   SOL   0.5897
284    MW  13.0300   1.6900   4.5500 M     1   SOL  -1.1794
285    OW  22.8800   3.0200   3.2100 O     1   SOL   0.0000
286   HW1  23.0300   3.5700   2.4400 H     1   SOL   0.5897
287   HW2  22.2900   2.3300   2.9000 H     1   SOL   0.5897
288    MW  22.8200   3.0000   3.0700 M     1   SOL  -1.1794
289    OW  22.3900   8.0800   6.9800 O     1   SOL   0.0000
290   HW1  23.2400   8.5100   7.0300 H     1   SOL   0.5897
291   HW2  22.5900   7.1500   7.0700 H     1   SOL   0.5897
292    MW  22.5300   8.0100   7.0000 M     1   SOL  -1.1794
293    OW  20.2800   6.4400   0.3800 O     1   SOL   0.0000
294   HW1  20.5300   7.3400   0.1600 H     1   SOL   0.5897
295   HW2  20.1100   6.4700   1.3300 H     1   SOL   0.5897
296    MW  20.2900   6.5700   0.4800 M     1   SOL  -1.1794
297    OW  13.3600  11.0300   9.2900 O     1   SOL   0.0000
298   HW1  13.9600  10.8900  10.0200 H     1   SOL   0.5897
299   HW2  13.3000  11.9900   9.2200 H     1   SOL   0.5897
300    MW  13.4400  11.1400   9.3800 M     1   SOL  -1.1794
301    OW  21.1100   8.9300   9.2600 O     1   SOL   0.0000
302   HW1  20.8500   8.1300   9.7100 H     1   SOL   0.5897
303   HW2  21.6300   8.6300   8.5100 H     1   SOL   0.5897
304    MW  21.1400   8.7900   9.2200 M     1   SOL  -1.1794
305    OW  19.0800   1.0400   4.1900 O     1   SOL   0.0000
306   HW1  19.2900   0.2300   4.6400 H     1   SOL   0.5897
307   HW2  18.5400   0.7600   3.4400 H     1   SOL   0.5897
308    MW  19.0300   0.8900   4.1500 M     1   SOL  -1.1794
309    OW  13.1300   2.1800   9.4400 O     1   SOL   0.0000
310   HW1  12.2800   2.4000   9.8200 H     1   SOL   0.5897
311   HW2  13.7600   2.4300  10.1200 H     1   SOL   0.5897
312    MW  13.1000   2.2400   9.5800 M     1   SOL  -1.1794
313    OW  15.1700   8.0100   6.7400 O     1   SOL   0.0000
314   HW1  15.7400   8.2100   6.0000 H     1   SOL   0.5897
315   HW2  14.4400   8.6300   6.6600 H     1   SOL   0.5897
316    MW  15.1500   8.1200   6.6300 M     1   SOL  -1.1794
317    OW  17.1900   6.8700   3.5000 O     1   SOL   0.0000
318   HW1  18.1200   6.8000   3.2700 H     1   SOL   0.5897
319   HW2  17.0600   6.2300   4.1900 H     1   SOL   0.5897
320    MW  17.3000   6.7800   3.5600 M     1   SOL  -1.1794
321    OW  17.6800   6.8200  10.7300 O     1   SOL   0.0000
322   HW1  17.3200   6.1900  10.1200 H     1   SOL   0.5897
323   HW2  17.2600   7.6500  10.5100 H     1   SOL   0.5897
324    MW  17.5800   6.8500  10.6200 M     1   SOL  -1.1794
325    OW  15.2700   2.8600  10.9400 O     1   SOL   0.0000
326   HW1  15.9500   3.2900  10.4200 H     1   SOL   0.5897
327   HW2  15.6700   2.0500  11.2400 H     1   SOL   0.5897
328    MW  15.4100   2.8100  10.9100 M     1   SOL  -1.1794
329    OW  12.5800  11.5200   4.0400 O     1   SOL   0.0000
330   HW1  12.4800  11.0000   4.8400 H     1   SOL   0.5897
331   HW2  11.8100  11.2900   3.5200 H     1   SOL   0.5897
332    MW  12.4600  11.4200   4.0800 M     1   SOL  -1.1794
333    OW  14.5300   9.1400   0.9400 O     1   SOL   0.0000
334   HW1  14.8500   9.3500   0.0600 H     1   SOL   0.5897
335   HW2  13.5800   9.0900   0.8300 H     1   SOL   0.5897
336    MW  14.4400   9.1600   0.8000 M     1   SOL  -1.1794
337    OW  14.7700   4.0900   1.3100 O     1   SOL   0.0000
338   HW1  13.8300   4.2400   1.3700 H     1   SOL   0.5897
339   HW2  15.1400   4.9400   1.0700 H     1   SOL   0.5897
340    MW  14.6900   4.2300   1.2800 M     1   SOL  -1.1794
341    OW  21.2000   4.9200   4.6200 O     1   SOL   0.0000
342   HW1  21.7700   4.2800   4.1800 H     1   SOL   0.5897
343   HW2  20.5500   4.3800   5.0700 H     1   SOL   0.5897
344    MW  21.1900   4.7600   4.6200 M     1   SOL  -1.1794
345    OW  21.0000   8.8300   4.6000 O     1   SOL   0.0000
346   HW1  21.2300   8.4600   5.4500 H     1   SOL   0.5897
347   HW2  21.8400   8.9800   4.1700 H     1   SOL   0.5897
348    MW  21.1400   8.8000   4.6500 M     1   SOL  -1.1794
349    OW  20.2100   6.7000   3.1300 O     1   SOL   0.0000
350   HW1  20.5900   6.1200   3.7900 H     1   SOL   0.5897
351   HW2  20.4900   7.5800   3.3900 H     1   SOL   0.5897
352    MW  20.3000   6.7400   3.2500 M     1   SOL  -1.1794
353    OW  15.5200  10.5400  11.1100 O     1   SOL   0.0000
354   HW1  16.1200  11.2700  11.2800 H     1   SOL   0.5897
355   HW2  15.8700  10.1000  10.3400 H     1   SOL   0.5897
356    MW  15.6400  10.5800  11.0300 M     1   SOL  -1.1794
357    OW  19.1600   0.4000  10.4000 O     1   SOL   0.0000
358   HW1  18.3100   0.5200  10.8300 H     1   SOL   0.5897
359   HW2  19.2100   1.1200   9.7700 H     1   SOL   0.5897
360    MW  19.0500   0.5100  10.3700 M     1   SOL  -1.1794
361    OW  15.7000   6.6300   1.1600 O     1   SOL   0.0000
362   HW1  15.1800   7.4200   0.9900 H     1   SOL   0.5897
363   HW2  16.0800   6.7700   2.0300 H     1   SOL   0.5897
364    MW  15.6800   6.7600   1.2500 M     1   SOL  -1.1794
365    OW  21.5800   0.5600  11.9100 O     1   SOL   0.0000
366   HW1  20.7700   0.7200  11.4100 H     1   SOL   0.5897
367   HW2  22.1200   0.0300  11.3400 H     1   SOL   0.5897
368    MW  21.5400   0.5100  11.7700 M     1   SOL  -1.1794
369    OW  11.0500  16.2700   0.2400 O     1   SOL   0.0000
370   HW1  10.9700  15.8300  -0.6100 H     1   SOL   0.5897
371   HW2  12.0000  16.3800   0.3500 H     1   SOL   0.5897
372    MW  11.1700  16.2200   0.1400 M     1   SOL  -1.1794
373    OW   4.5400  12.7300   1.8200 O     1   SOL   0.0000
374   HW1   4.0200  11.9300   1.9200 H     1   SOL   0.5897
375   HW2   3.9500  13.4300   2.1100 H     1   SOL   0.5897
376    MW   4.3900  12.7200   1.8700 M     1   SOL  -1.1794
377    OW   1.4600  15.5600   6.8400 O     1   SOL   0.0000
378   HW1   1.3800  14.9100   7.5500 H     1   SOL   0.5897
379   HW2   1.3400  15.0500   6.0400 H     1   SOL   0.5897
380    MW   1.4300  15.4000   6.8300 M     1   SOL  -1.1794
381    OW   9.4500  16.5300   8.8900 O     1   SOL   0.0000
382   HW1   9.1100  17.1200   9.5800 H     1   SOL   0.5897
383   HW2  10.0200  15.9200   9.3600 H     1   SOL   0.5897
384    MW   9.4800  16.5300   9.0500 M     1   SOL  -1.1794
385    OW   3.2900  14.7700   2.9000 O     1   SOL   0.0000
386   HW1   3.9100  15.2900   3.4200 H     1   SOL   0.5897
387   HW2   2.9800  15.3800   2.2300 H     1   SOL   0.5897
388    MW   3.3300  14.9200   2.8800 M     1   SOL  -1.1794
389    OW   1.5100  22.0100   6.7400 O     1   SOL   0.0000
390   HW1   1.6100  22.5700   5.9700 H     1   SOL   0.5897
391   HW2   0.7100  21.5000   6.5500 H     1   SOL   0.5897
392    MW   1.4100  22.0100   6.6100 M     1   SOL  -1.1794
393    OW   3.0500  22.6500   2.5600 O     1   SOL   0.0000
394   HW1   3.5400  22.0300   3.1200 H     1   SOL   0.5897
395   HW2   3.7100  23.3000   2.3100 H     1   SOL   0.5897
396    MW   3.2100  22.6500   2.6000 M     1   SOL  -1.1794
397    OW   6.8400  22.2500   5.5000 O     1   SOL   0.0000
398   HW1   6.9700  23.0600   5.0100 H     1   SOL   0.5897
399   HW2   6.0500  21.8700   5.1300 H     1   SOL   0.5897
400    MW   6.7500  22.3100   5.3800 M     1   SOL  -1.1794
401    OW   8.3700  18.6900  10.4100 O     1   SOL   0.0000
402   HW1   8.8600  19.2600   9.8200 H     1   SOL   0.5897
403   HW2   8.8200  18.7700  11.2500 H     1   SOL   0.5897
404    MW   8.5000  18.7800  10.4400 M     1   SOL  -1.1794
405    OW  11.0900  14.8100  10.5800 O     1   SOL   0.0000
406   HW1  11.8400  14.5100  10.0700 H     1   SOL   0.5897
407   HW2  11.4400  15.5000  11.1400 H     1   SOL   0.5897
408    MW  11.2400  14.8600  10.5900 M     1   SOL  -1.1794
409    OW   4.6700  16.3500   4.7700 O     1   SOL   0.0000
410   HW1   4.2800  16.7700   5.5400 H     1   SOL   0.5897
411   HW2   5.4500  15.9100   5.1000 H     1   SOL   0.5897
412    MW   4.7200  16.3500   4.9200 M     1   SOL  -1.1794
413    OW   3.2900  17.6100   6.9400 O     1   SOL   0.0000
414   HW1   2.6000  16.9700   6.7300 H     1   SOL   0.5897
415   HW2   3.6100  17.3400   7.8000 H     1   SOL   0.5897
416    MW   3.2400  17.4900   7.0200 M     1   SOL  -1.1794
417    OW   4.7500  20.9700   4.3600 O     1   SOL   0.0000
418   HW1   4.5400  20.6900   5.2500 H     1   SOL   0.5897
419   HW2   4.9300  20.1600   3.8900 H     1   SOL   0.5897
420    MW   4.7500  20.8300   4.4200 M     1   SOL  -1.1794
421    OW   4.7100  16.4800   9.5200 O     1   SOL   0.0000
422   HW1   4.9800  17.2300  10.0600 H     1   SOL   0.5897
423   HW2   5.4700  16.3100   8.9700 H     1   SOL   0.5897
424    MW   4.8500  16.5600   9.5200 M     1   SOL  -1.1794
425    OW   9.0900  13.0600   1.9900 O     1   SOL   0.0000
426   HW1   8.4100  13.0500   2.6700 H     1   SOL   0.5897
427   HW2   9.6200  13.8200   2.2000 H     1   SOL   0.5897
428    MW   9.0700  13.1600   2.1100 M     1   SOL  -1.1794
429    OW   6.8400  14.8900   5.7200 O     1   SOL   0.0000
430   HW1   6.9300  15.0000   6.6700 H     1   SOL   0.5897
431   HW2   7.5500  15.4000   5.3500 H     1   SOL   0.5897
432    MW   6.9400  14.9700   5.8000 M     1   SOL  -1.1794
433    OW  10.9200  22.1700   3.1300 O     1   SOL   0.0000
434   HW1  10.3700  21.7800   3.8000 H     1   SOL   0.5897
435   HW2  11.6800  22.5100   3.6100 H     1   SOL   0.5897
436    MW  10.9500  22.1700   3.2800 M     1   SOL  -1.1794
437    OW   7.2400  22.4700   8.2900 O     1   SOL   0.0000
438   HW1   7.0700  22.5200   7.3500 H     1   SOL   0.5897
439   HW2   8.0800  22.0000   8.3600 H     1   SOL   0.5897
440    MW   7.3300  22.4100   8.1800 M     1   SOL  -1.1794
441    OW  10.7300  17.3500   6.7000 O     1   SOL   0.0000
442   HW1  10.3500  16.9400   5.9200 H     1   SOL   0.5897
443   HW2  10.1300  17.1000   7.4100 H     1   SOL   0.5897
444    MW  10.6000  17.2600   6.6900 M     1   SOL  -1.1794
445    OW   5.2300  12.4200  11.2600 O     1   SOL   0.0000
446   HW1   5.4400  12.3900  12.2000 H     1   SOL   0.5897
447   HW2   4.6900  11.6500  11.1100 H     1   SOL   0.5897
448    MW   5.1800  12.3200  11.3700 M     1   SOL  -1.1794
449    OW   7.0700  15.2700   8.5100 O     1   SOL   0.0000
450   HW1   7.3400  14.4100   8.8500 H     1   SOL   0.5897
451   HW2   7.8500  15.8200   8.6200 H     1   SOL   0.5897
452    MW   7.2100  15.2300   8.5700 M     1   SOL  -1.1794
453    OW   5.0200  21.0300   9.3100 O     1   SOL   0.0000
454   HW1   4.6000  20.7700   8.4900 H     1   SOL   0.5897
455   HW2   5.8300  21.4500   9.0400 H     1   SOL   0.5897
456    MW   5.0700  21.0500   9.1600 M     1   SOL  -1.1794
457    OW  11.1400  20.9100   0.8300 O     1   SOL   0.0000
458   HW1  10.5900  20.1500   1.0600 H     1   SOL   0.5897
459   HW2  11.2200  21.4000   1.6500 H     1   SOL   0.5897
460    MW  11.0800  20.8700   0.9700 M     1   SOL  -1.1794
461    OW  10.7300  22.5900  10.2500 O     1   SOL   0.0000
462   HW1  10.9400  22.1700  11.0800 H     1   SOL   0.5897
463   HW2  11.5700  22.9000   9.9100 H     1   SOL   0.5897
464    MW  10.8700  22.5800  10.3100 M     1   SOL  -1.1794
465    OW   1.3400  13.7600   4.6200 O     1   SOL   0.0000
466   HW1   2.0500  14.0000   4.0200 H     1   SOL   0.5897
467   HW2   0.5400  13.9600   4.1500 H     1   SOL   0.5897
468    MW   1.3300  13.8200   4.4800 M     1   SOL  -1.1794
469    OW  10.8700  15.4900   2.7600 O     1   SOL   0.0000
470   HW1  11.1200  15.8100   1.9000 H     1   SOL   0.5897
471   HW2  11.6900  15.2800   3.1900 H     1   SOL   0.5897
472    MW  11.0100  15.5000   2.7000 M     1   SOL  -1.1794
473    OW  11.0400  19.8900   6.6700 O     1   SOL   0.0000
474   HW1  10.4900  20.3500   6.0300 H     1   SOL   0.5897
475   HW2  10.7900  18.9700   6.5900 H     1   SOL   0.5897
476    MW  10.9300  19.8300   6.5700 M     1   SOL  -1.1794
477    OW   9.2100  18.6700   0.7100 O     1   SOL   0.0000
478   HW1   8.3300  18.7500   0.3300 H     1   SOL   0.5897
479   HW2   9.5800  17.8900   0.3000 H     1   SOL   0.5897
480    MW   9.1400  18.5800   0.6000 M     1   SOL  -1.1794
481    OW   1.4200  23.6500   9.2600 O     1   SOL   0.0000
482   HW1   1.4500  23.2000   8.4200 H     1   SOL   0.5897
483   HW2   2.1800  23.3300   9.7400 H     1   SOL   0.5897
484    MW   1.5300  23.5500   9.2200 M     1   SOL  -1.1794
485    OW   9.4700  20.6900   8.7800 O     1   SOL   0.0000
486   HW1   9.8600  21.4500   9.2200 H     1   SOL   0.5897
487   HW2  10.0600  20.5200   8.0400 H     1   SOL   0.5897
488    MW   9.6000  20.7700   8.7400 M     1   SOL  -1.1794
489    OW   6.8300  13.0400   3.6300 O     1   SOL   0.0000
490   HW1   6.7600  13.6600   4.3600 H     1   SOL   0.5897
491   HW2   6.0500  13.2000   3.1100 H     1   SOL   0.5897
492    MW   6.7200  13.1500   3.6600 M     1   SOL  -1.1794
493    OW   1.3500  13.8800   9.2300 O     1   SOL   0.0000
494   HW1   0.5800  14.3100   9.6100 H     1   SOL   0.5897
495   HW2   2.0500  14.0200   9.8600 H     1   SOL   0.5897
496    MW   1.3400  13.9600   9.3600 M     1   SOL  -1.1794
497    OW   3.6900  20.2700   6.9600 O     1   SOL   0.0000
498   HW1   3.4500  19.3400   6.9800 H     1   SOL   0.5897
499   HW2   2.8700  20.7300   6.8100 H     1   SOL   0.5897
500    MW   3.5500  20.2100   6.9400 M     1   SOL  -1.1794
501    OW   5.5800  18.5200   3.4500 O     1   SOL   0.0000
502   HW1   5.1500  18.4600   2.6000 H     1   SOL   0.5897
503   HW2   5.1900  17.8100   3.9700 H     1   SOL   0.5897
504    MW   5.4700  18.4200   3.4000 M     1   SOL  -1.1794
505    OW   5.5900  18.7800  10.5200 O     1   SOL   0.0000
506   HW1   5.2400  19.5700  10.1000 H     1   SOL   0.5897
507   HW2   6.5400  18.8400  10.4000 H     1   SOL   0.5897
508    MW   5.6700  18.8900  10.4400 M     1   SOL  -1.1794
509    OW   3.5200  14.4200  11.0300 O     1   SOL   0.0000
510   HW1   4.1200  13.6800  10.9400 H     1   SOL   0.5897
511   HW2   3.9700  15.1500  10.6100 H     1   SOL   0.5897
512    MW   3.6600  14.4200  10.9600 M     1   SOL  -1.1794
513    OW   1.1800  23.4500   4.2500 O     1   SOL   0.0000
514   HW1   1.8200  23.3400   3.5500 H     1   SOL   0.5897
515   HW2   1.2200  24.3800   4.4800 H     1   SOL   0.5897
516    MW   1.2700  23.5600   4.1900 M     1   SOL  -1.1794
517    OW   2.5700  20.2000   0.9300 O     1   SOL   0.0000
518   HW1   2.6000  20.2300  -0.0200 H     1   SOL   0.5897
519   HW2   2.6400  21.1200   1.2000 H     1   SOL   0.5897
520    MW   2.5800  20.3300   0.8400 M     1   SOL  -1.1794
521    OW   2.2200  16.3600   0.7700 O     1   SOL   0.0000
522   HW1   2.3400  16.2500  -0.1800 H     1   SOL   0.5897
523   HW2   1.2700  16.3100   0.9000 H     1   SOL   0.5897
524    MW   2.1000  16.3400   0.6600 M     1   SOL  -1.1794
525    OW   9.1000  16.3600   4.6600 O     1   SOL   0.0000
526   HW1   9.6600  15.8700   4.0600 H     1   SOL   0.5897
527   HW2   8.8500  17.1400   4.1700 H     1   SOL   0.5897
528    MW   9.1400  16.4000   4.5200 M     1   SOL  -1.1794
529    OW   9.1200  20.9000   4.8600 O     1   SOL   0.0000
530   HW1   8.9300  20.1400   4.3000 H     1   SOL   0.5897
531   HW2   8.2700  21.3100   5.0100 H     1   SOL   0.5897
532    MW   8.9800  20.8500   4.8000 M     1   SOL  -1.1794
533    OW   8.4600  18.7200   3.3500 O     1   SOL   0.0000
534   HW1   8.7800  18.5900   2.4600 H     1   SOL   0.5897
535   HW2   7.5100  18.8000   3.2500 H     1   SOL   0.5897
536    MW   8.3700  18.7100   3.2200 M     1   SOL  -1.1794
537    OW   3.5400  22.7200  11.0000 O     1   SOL   0.0000
538   HW1   4.1500  23.4500  10.9400 H     1   SOL   0.5897
539   HW2   3.8900  22.0600  10.4000 H     1   SOL   0.5897
540    MW   3.6700  22.7300  10.9200 M     1   SOL  -1.1794
541    OW   7.6600  12.5900   9.8000 O     1   SOL   0.0000
542   HW1   6.9300  12.4600  10.4100 H     1   SOL   0.5897
543   HW2   8.4300  12.6400  10.3600 H     1   SOL   0.5897
544    MW   7.6600  12.5800   9.9600 M     1   SOL  -1.1794
545    OW   4.5200  18.2500   1.0200 O     1   SOL   0.0000
546   HW1   4.0500  17.4200   0.9400 H     1   SOL   0.5897
547   HW2   3.8400  18.9200   0.9800 H     1   SOL   0.5897
548    MW   4.3700  18.2300   1.0000 M     1   SOL  -1.1794
549    OW   9.7600  12.4400  11.6600 O     1   SOL   0.0000
550   HW1  10.2400  11.6600  11.3700 H     1   SOL   0.5897
551   HW2  10.2700  13.1800  11.3200 H     1   SOL   0.5897
552    MW   9.9000  12.4300  11.5800 M     1   SOL  -1.1794
553    OW  23.5200  16.1100   1.2800 O     1   SOL   0.0000
554   HW1  23.3200  17.0400   1.2400 H     1   SOL   0.5897
555   HW2  23.0400  15.7300   0.5400 H     1   SOL   0.5897
556    MW  23.4300  16.1800   1.1700 M     1   SOL  -1.1794
557    OW  16.9200  12.6800   1.9400 O     1   SOL   0.0000
558   HW1  16.3300  12.0700   2.4000 H     1   SOL   0.5897
559   HW2  17.6500  12.8000   2.5500 H     1   SOL   0.5897
560    MW  16.9400  12.6100   2.0900 M     1   SOL  -1.1794
561    OW  12.9400  15.4000   6.4500 O     1   SOL   0.0000
562   HW1  12.8600  15.0800   5.5500 H     1   SOL   0.5897
563   HW2  12.1200  15.8700   6.6100 H     1   SOL   0.5897
564    MW  12.8200  15.4200   6.3500 M     1   SOL  -1.1794
565    OW  21.2400  16.2600   9.1900 O     1   SOL   0.0000
566   HW1  21.8100  16.6500   8.5400 H     1   SOL   0.5897
567   HW2  21.8200  15.7800   9.7700 H     1   SOL   0.5897
568    MW  21.3900  16.2500   9.1800 M     1   SOL  -1.1794
569    OW  15.3100  14.9500   2.2700 O     1   SOL   0.0000
570   HW1  15.8800  14.2100   2.0600 H     1   SOL   0.5897
571   HW2  15.8600  15.5400   2.7900 H     1   SOL   0.5897
572    MW  15.4600  14.9300   2.3100 M     1   SOL  -1.1794
573    OW  13.3800  21.5300   6.6700 O     1   SOL   0.0000
574   HW1  12.6500  20.9400   6.8600 H     1   SOL   0.5897
575   HW2  14.1400  20.9600   6.6000 H     1   SOL   0.5897
576    MW  13.3800  21.3800   6.6900 M     1   SOL  -1.1794
577    OW  15.3500  22.0400   2.2400 O     1   SOL   0.0000
578   HW1  15.0000  21.8600   1.3700 H     1   SOL   0.5897
579   HW2  14.5800  22.2500   2.7700 H     1   SOL   0.5897
580    MW  15.2000  22.0500   2.1900 M     1   SOL  -1.1794
581    OW  19.2800  22.3400   5.4100 O     1   SOL   0.0000
582   HW1  20.0400  21.7600   5.3300 H     1   SOL   0.5897
583   HW2  19.1500  22.4300   6.3600 H     1   SOL   0.5897
584    MW  19.3600  22.2800   5.5300 M     1   SOL  -1.1794
585    OW  21.0200  18.6100  10.3800 O     1   SOL   0.0000
586   HW1  21.1300  17.7100  10.0800 H     1   SOL   0.5897
587   HW2  21.5400  18.6700  11.1800 H     1   SOL   0.5897
588    MW  21.1000  18.5000  10.4400 M     1   SOL  -1.1794
589    OW  23.0800  14.7800  10.6400 O     1   SOL   0.0000
590   HW1  22.4700  14.1300  10.9900 H     1   SOL   0.5897
591   HW2  23.4100  15.2400  11.4100 H     1   SOL   0.5897
592    MW  23.0400  14.7600  10.7900 M     1   SOL  -1.1794
593    OW  16.7600  16.2700   4.1600 O     1   SOL   0.0000
594   HW1  16.2600  16.6200   4.9000 H     1   SOL   0.5897
595   HW2  17.1300  17.0500   3.7400 H     1   SOL   0.5897
596    MW  16.7400  16.4200   4.2000 M     1   SOL  -1.1794
597    OW  15.5200  17.1200   6.4800 O     1   SOL   0.0000
598   HW1  14.6600  16.7900   6.7600 H     1   SOL   0.5897
599   HW2  15.4600  18.0700   6.5800 H     1   SOL   0.5897
600    MW  15.3900  17.2000   6.5300 M     1   SOL  -1.1794
601    OW  16.9500  21.0900   4.3300 O     1   SOL   0.0000
602   HW1  16.5200  21.5200   3.5900 H     1   SOL   0.5897
603   HW2  17.6800  21.6700   4.5500 H     1   SOL   0.5897
604    MW  16.9900  21.2300   4.2600 M     1   SOL  -1.1794
605    OW  16.7000  16.4200   8.8200 O     1   SOL   0.0000
606   HW1  16.9900  17.1600   9.3400 H     1   SOL   0.5897
607   HW2  16.5200  16.7800   7.9600 H     1   SOL   0.5897
608    MW  16.7200  16.5700   8.7800 M     1   SOL  -1.1794
609    OW  21.7000  12.1000   2.9600 O     1   SOL   0.0000
610   HW1  22.1500  12.8700   3.3000 H     1   SOL   0.5897
611   HW2  20.8000  12.1900   3.2800 H     1   SOL   0.5897
612    MW  21.6400  12.2200   3.0500 M     1   SOL  -1.1794
613    OW  18.8100  14.7100   5.6200 O     1   SOL   0.0000
614   HW1  18.7800  14.7300   6.5800 H     1   SOL   0.5897
615   HW2  18.0100  15.1600   5.3400 H     1   SOL   0.5897
616    MW  18.7000  14.7800   5.7100 M     1   SOL  -1.1794
617    OW  22.5400  22.5400   2.9300 O     1   SOL   0.0000
618   HW1  22.8200  21.9200   2.2500 H     1   SOL   0.5897
619   HW2  23.3500  22.8500   3.3200 H     1   SOL   0.5897
620    MW  22.6900  22.5000   2.8900 M     1   SOL  -1.1794
621    OW  19.3700  22.2900   8.3500 O     1   SOL   0.0000
622   HW1  20.1800  21.8100   8.5400 H     1   SOL   0.5897
623   HW2  19.4100  23.0600   8.9100 H     1   SOL   0.5897
624    MW  19.4800  22.3300   8.4500 M     1   SOL  -1.1794
625    OW  22.7200  17.3000   6.8800 O     1   SOL   0.0000
626   HW1  23.5200  16.8000   6.6900 H     1   SOL   0.5897
627   HW2  22.9600  18.2100   6.7000 H     1   SOL   0.5897
628    MW  22.8600  17.3600   6.8300 M     1   SOL  -1.1794
629    OW  16.6800  12.8100  11.6600 O     1   SOL   0.0000
630   HW1  17.4600  12.7300  11.1100 H     1   SOL   0.5897
631   HW2  16.2400  13.6000  11.3400 H     1   SOL   0.5897
632    MW  16.7300  12.9100  11.5500 M     1   SOL  -1.1794
633    OW  18.8200  14.7800   8.3200 O     1   SOL   0.0000
634   HW1  19.5500  15.3800   8.4800 H     1   SOL   0.5897
635   HW2  18.0400  15.3000   8.5200 H     1   SOL   0.5897
636    MW  18.8100  14.9300   8.3700 M     1   SOL  -1.1794
637    OW  16.9300  20.9600   8.9700 O     1   SOL   0.0000
638   HW1  17.2500  20.0900   9.2100 H     1   SOL   0.5897
639   HW2  17.7200  21.4900   8.9000 H     1   SOL   0.5897
640    MW  17.0800  20.9200   8.9900 M     1   SOL  -1.1794
641    OW  23.6200  20.7600   0.9800 O     1   SOL   0.0000
642   HW1  24.5000  20.4600   1.2100 H     1   SOL   0.5897
643   HW2  23.7500  21.3000   0.2000 H     1   SOL   0.5897
644    MW  23.7600  20.7900   0.9100 M     1   SOL  -1.1794
645    OW  23.1100  22.4300  10.3700 O     1   SOL   0.0000
646   HW1  23.9300  22.7900  10.0500 H     1   SOL   0.5897
647   HW2  23.3400  22.0400  11.2200 H     1   SOL   0.5897
648    MW  23.2500  22.4200  10.4400 M     1   SOL  -1.1794
649    OW  13.1400  14.3200   3.9300 O     1   SOL   0.0000
650   HW1  13.9700  14.4400   3.4600 H     1   SOL   0.5897
651   HW2  13.0600  13.3800   4.0500 H     1   SOL   0.5897
652    MW  13.2400  14.2100   3.8800 M     1   SOL  -1.1794
653    OW  22.9100  14.5300   3.5300 O     1   SOL   0.0000
654   HW1  22.2600  15.0700   3.9700 H     1   SOL   0.5897
655   HW2  23.0200  14.9300   2.6600 H     1   SOL   0.5897
656    MW  22.8400  14.6600   3.4700 M     1   SOL  -1.1794
657    OW  23.2700  20.1400   6.7800 O     1   SOL   0.0000
658   HW1  22.7200  20.2800   6.0100 H     1   SOL   0.5897
659   HW2  22.7500  20.4700   7.5100 H     1   SOL   0.5897
660    MW  23.1300  20.2100   6.7700 M     1   SOL  -1.1794
661    OW  21.9100  18.5000   1.0800 O     1   SOL   0.0000
662   HW1  21.5500  18.3300   0.2000 H     1   SOL   0.5897
663   HW2  22.3400  19.3500   0.9900 H     1   SOL   0.5897
664    MW  21.9200  18.5900   0.9500 M     1   SOL  -1.1794
665    OW  13.0800  23.4400   9.0100 O     1   SOL   0.0000
666   HW1  13.5400  23.3300   8.1800 H     1   SOL   0.5897
667   HW2  13.0700  24.3900   9.1500 H     1   SOL   0.5897
668    MW  13.1400  23.5600   8.9200 M     1   SOL  -1.1794
669    OW  21.6400  20.7200   8.8400 O     1   SOL   0.0000
670   HW1  22.0900  21.3100   9.4500 H     1   SOL   0.5897
671   HW2  21.4700  19.9300   9.3600 H     1   SOL   0.5897
672    MW  21.6800  20.7000   9.0000 M     1   SOL  -1.1794
673    OW  19.0100  12.3800   4.0400 O     1   SOL   0.0000
674   HW1  19.1000  13.1600   4.5900 H     1   SOL   0.5897
675   HW2  18.9200  11.6600   4.6600 H     1   SOL   0.5897
676    MW  19.0100  12.3900   4.2000 M     1   SOL  -1.1794
677    OW  13.1600  13.7800   9.1500 O     1   SOL   0.0000
678   HW1  14.0400  13.9200   9.4800 H     1   SOL   0.5897
679   HW2  13.1500  14.1900   8.2900 H     1   SOL   0.5897
680    MW  13.2700  13.8500   9.0800 M     1   SOL  -1.1794
681    OW  15.6500  19.9100   6.4700 O     1   SOL   0.0000
682   HW1  16.1400  20.4100   5.8100 H     1   SOL   0.5897
683   HW2  16.0000  20.2200   7.3100 H     1   SOL   0.5897
684    MW  15.7600  20.0200   6.4900 M     1   SOL  -1.1794
685    OW  17.7300  18.6300   3.1600 O     1   SOL   0.0000
686   HW1  17.4600  19.5000   3.4600 H     1   SOL   0.5897
687   HW2  18.6900  18.6400   3.2300 H     1   SOL   0.5897
688    MW  17.8200  18.7500   3.2100 M     1   SOL  -1.1794
689    OW  17.9800  18.5300  10.2000 O     1   SOL   0.0000
690   HW1  18.9300  18.5900  10.3600 H     1   SOL   0.5897
691   HW2  17.5900  18.6900  11.0600 H     1   SOL   0.5897
692    MW  18.0600  18.5600  10.3400 M     1   SOL  -1.1794
693    OW  15.2400  14.9600  10.6100 O     1   SOL   0.0000
694   HW1  14.8400  15.5600  11.2500 H     1   SOL   0.5897
695   HW2  15.7200  15.5400  10.0100 H     1   SOL   0.5897
696    MW  15.2500  15.1200  10.6200 M     1   SOL  -1.1794
697    OW  13.5400  22.6700   4.1800 O     1   SOL   0.0000
698   HW1  13.3500  23.5900   4.3700 H     1   SOL   0.5897
699   HW2  13.6100  22.2500   5.0400 H     1   SOL   0.5897
700    MW  13.5200  22.7400   4.3200 M     1   SOL  -1.1794
701    OW  13.4700  19.5300   0.5200 O     1   SOL   0.0000
702   HW1  13.4600  19.7100  -0.4200 H     1   SOL   0.5897
703   HW2  12.6700  19.9400   0.8500 H     1   SOL   0.5897
704    MW  13.3600  19.6100   0.4400 M     1   SOL  -1.1794
705    OW  13.8000  16.5500   0.4500 O     1   SOL   0.0000
706   HW1  13.9500  17.4800   0.6100 H     1   SOL   0.5897
707   HW2  14.5000  16.1100   0.9400 H     1   SOL   0.5897
708    MW  13.9100  16.6100   0.5400 M     1   SOL  -1.1794
709    OW  21.2100  16.2000   5.0000 O     1   SOL   0.0000
710   HW1  21.5700  16.5300   5.8200 H     1   SOL   0.5897
711   HW2  20.3800  15.7900   5.2500 H     1   SOL   0.5897
712    MW  21.1500  16.1900   5.1500 M     1   SOL  -1.1794
713    OW  21.4100  20.8300   4.9200 O     1   SOL   0.0000
714   HW1  21.0200  20.1200   4.4100 H     1   SOL   0.5897
715   HW2  21.8500  21.3800   4.2700 H     1   SOL   0.5897
716    MW  21.4200  20.8100   4.7600 M     1   SOL  -1.1794
717    OW  20.4500  18.4700   3.3800 O     1   SOL   0.0000
718   HW1  20.7000  17.6700   3.8400 H     1   SOL   0.5897
719   HW2  20.8600  18.3900   2.5200 H     1   SOL   0.5897
720    MW  20.5400  18.3500   3.3300 M     1   SOL  -1.1794
721    OW  15.1500  22.3700  10.5600 O     1   SOL   0.0000
722   HW1  14.5700  22.8700   9.9800 H     1   SOL   0.5897
723   HW2  15.6800  21.8400   9.9700 H     1   SOL   0.5897
724    MW  15.1400  22.3700  10.4000 M     1   SOL  -1.1794
725    OW  18.8100  12.3700  10.0600 O     1   SOL   0.0000
726   HW1  18.8900  11.5500   9.5700 H     1   SOL   0.5897
727   HW2  18.7300  13.0400   9.3800 H     1   SOL   0.5897
728    MW  18.8100  12.3500   9.9000 M     1   SOL  -1.1794
729    OW  16.4200  18.3000   0.7100 O     1   SOL   0.0000
730   HW1  16.8900  18.5700   1.5000 H     1   SOL   0.5897
731   HW2  15.6300  18.8500   0.7100 H     1   SOL   0.5897
732    MW  16.3800  18.4100   0.8200 M     1   SOL  -1.1794
733    OW  21.1200  12.7100  11.2100 O     1   SOL   0.0000
734   HW1  21.6900  11.9900  10.9500 H     1   SOL   0.5897
735   HW2  20.3600  12.6300  10.6400 H     1   SOL   0.5897
736    MW  21.1000  12.6000  11.1000 M     1   SOL  -1.1794
737    OW  11.3400   4.1000  12.9500 O     1   SOL   0.0000
738   HW1  12.2400   4.4000  13.0500 H     1   SOL   0.5897
739   HW2  11.3500   3.5900  12.1300 H     1   SOL   0.5897
740    MW  11.4600   4.0700  12.8500 M     1   SOL  -1.1794
741    OW   5.1600   0.8500  14.1700 O     1   SOL   0.0000
742   HW1   4.5600   1.5000  14.5500 H     1   SOL   0.5897
743   HW2   4.7300   0.0100  14.3100 H     1   SOL   0.5897
744    MW   5.0300   0.8300  14.2400 M     1   SOL  -1.1794
745    OW   1.0600   3.9500  18.9700 O     1   SOL   0.0000
746   HW1   0.4500   4.6800  18.8300 H     1   SOL   0.5897
747   HW2   1.0600   3.4600  18.1500 H     1   SOL   0.5897
748    MW   0.9800   3.9800  18.8400 M     1   SOL  -1.1794
749    OW   9.3600   4.7200  20.9300 O     1   SOL   0.0000
750   HW1   8.6200   4.1300  20.8500 H     1   SOL   0.5897
751   HW2   9.5400   5.0200  20.0400 H     1   SOL   0.5897
752    MW   9.2900   4.6800  20.8000 M     1   SOL  -1.1794
753    OW   3.4800   2.9800  15.1900 O     1   SOL   0.0000
754   HW1   2.6100   2.6800  15.4600 H     1   SOL   0.5897
755   HW2   3.3300   3.4500  14.3700 H     1   SOL   0.5897
756    MW   3.3400   3.0000  15.1200 M     1   SOL  -1.1794
757    OW   1.3900   9.7600  18.9400 O     1   SOL   0.0000
758   HW1   1.5600  10.2200  18.1200 H     1   SOL   0.5897
759   HW2   2.0900   9.1200  19.0100 H     1   SOL   0.5897
760    MW   1.5000   9.7400  18.8400 M     1   SOL  -1.1794
761    OW   3.7100  10.5400  14.7500 O     1   SOL   0.0000
762   HW1   3.0400  10.9600  15.2900 H     1   SOL   0.5897
763   HW2   3.2200  10.1600  14.0100 H     1   SOL   0.5897
764    MW   3.5500  10.5400  14.7200 M     1   SOL  -1.1794
765    OW   6.6000  10.5100  17.6600 O     1   SOL   0.0000
766   HW1   6.0200   9.8600  17.2600 H     1   SOL   0.5897
767   HW2   6.7300  11.1700  16.9800 H     1   SOL   0.5897
768    MW   6.5400  10.5100  17.5200 M     1   SOL  -1.1794
769    OW   8.6900   6.9900  22.3500 O     1   SOL   0.0000
770   HW1   8.8300   6.1900  21.8500 H     1   SOL   0.5897
771   HW2   7.7600   6.9600  22.5800 H     1   SOL   0.5897
772    MW   8.5800   6.8800  22.3100 M     1   SOL  -1.1794
773    OW  10.2300   3.3300  23.0500 O     1   SOL   0.0000
774   HW1  10.0300   2.4000  22.9600 H     1   SOL   0.5897
775   HW2   9.7800   3.7500  22.3100 H     1   SOL   0.5897
776    MW  10.1400   3.2600  22.9400 M     1   SOL  -1.1794
777    OW   4.9900   4.2200  17.0700 O     1   SOL   0.0000
778   HW1   5.3700   4.8400  16.4500 H     1   SOL   0.5897
779   HW2   4.3500   3.7200  16.5500 H     1   SOL   0.5897
780    MW   4.9500   4.2300  16.9200 M     1   SOL  -1.1794
781    OW   3.5900   5.2000  19.2500 O     1   SOL   0.0000
782   HW1   2.7600   4.7300  19.2900 H     1   SOL   0.5897
783   HW2   4.0700   4.7800  18.5300 H     1   SOL   0.5897
784    MW   3.5400   5.0800  19.1600 M     1   SOL  -1.1794
785    OW   4.7200   8.8100  16.7000 O     1   SOL   0.0000
786   HW1   4.0900   8.4900  17.3500 H     1   SOL   0.5897
787   HW2   4.2000   9.3600  16.1100 H     1   SOL   0.5897
788    MW   4.5700   8.8400  16.7100 M     1   SOL  -1.1794
789    OW   5.5100   4.3800  21.1600 O     1   SOL   0.0000
790   HW1   4.8700   4.7100  20.5300 H     1   SOL   0.5897
791   HW2   5.6300   5.1000  21.7900 H     1   SOL   0.5897
792    MW   5.4400   4.5200  21.1600 M     1   SOL  -1.1794
793    OW   9.3300   0.8700  13.8700 O     1   SOL   0.0000
794   HW1   8.6700   0.7300  14.5600 H     1   SOL   0.5897
795   HW2   9.8900   1.5700  14.2100 H     1   SOL   0.5897
796    MW   9.3200   0.9400  14.0100 M     1   SOL  -1.1794
797    OW   7.4800   2.9900  17.3900 O     1   SOL   0.0000
798   HW1   6.5500   3.2300  17.3100 H     1   SOL   0.5897
799   HW2   7.5500   2.1700  16.8900 H     1   SOL   0.5897
800    MW   7.3600   2.9100  17.3100 M     1   SOL  -1.1794
801    OW  10.7000  10.6500  15.2300 O     1   SOL   0.0000
802   HW1  11.4400  10.9000  15.7800 H     1   SOL   0.5897
803   HW2  10.0700  10.2600  15.8400 H     1   SOL   0.5897
804    MW  10.7100  10.6300  15.3900 M     1   SOL  -1.1794
805    OW   6.5800  10.3300  20.4000 O     1   SOL   0.0000
806   HW1   6.4900  10.4800  19.4600 H     1   SOL   0.5897
807   HW2   6.7000  11.2000  20.7800 H     1   SOL   0.5897
808    MW   6.5900  10.4700  20.3300 M     1   SOL  -1.1794
809    OW  10.7000   5.5900  18.6600 O     1   SOL   0.0000
810   HW1  10.9000   6.5300  18.7700 H     1   SOL   0.5897
811   HW2  11.4800   5.1400  18.9800 H     1   SOL   0.5897
812    MW  10.8300   5.6600  18.7200 M     1   SOL  -1.1794
813    OW   4.9500   0.4100  23.4900 O     1   SOL   0.0000
814   HW1   5.8200   0.5000  23.1100 H     1   SOL   0.5897
815   HW2   4.5300   1.2600  23.3400 H     1   SOL   0.5897
816    MW   5.0100   0.5300  23.4200 M     1   SOL  -1.1794
817    OW   7.6000   2.7200  20.3600 O     1   SOL   0.0000
818   HW1   6.7900   3.2200  20.4200 H     1   SOL   0.5897
819   HW2   7.7100   2.5600  19.4200 H     1   SOL   0.5897
820    MW   7.5100   2.7700  20.2400 M     1   SOL  -1.1794
821    OW   4.7400   8.7400  21.4500 O     1   SOL   0.0000
822   HW1   5.3600   9.4000  21.1400 H     1   SOL   0.5897
823   HW2   3.9600   9.2300  21.6900 H     1   SOL   0.5897
824    MW   4.7200   8.8900  21.4400 M     1   SOL  -1.1794
825    OW  12.0300   9.2200  13.0600 O     1   SOL   0.0000
826   HW1  11.6900   9.8200  13.7200 H     1   SOL   0.5897
827   HW2  11.6200   8.3800  13.2700 H     1   SOL   0.5897
828    MW  11.9300   9.1800  13.1800 M     1   SOL  -1.1794
829    OW  11.1300  10.7300  22.8700 O     1   SOL   0.0000
830   HW1  10.5700  10.1600  22.3500 H     1   SOL   0.5897
831   HW2  11.4700  10.1600  23.5700 H     1   SOL   0.5897
832    MW  11.1000  10.5700  22.9000 M     1   SOL  -1.1794
833    OW   1.1500   2.4200  16.6000 O     1   SOL   0.0000
834   HW1   1.1800   1.4600  16.6400 H     1   SOL   0.5897
835   HW2   0.3800   2.6100  16.0500 H     1   SOL   0.5897
836    MW   1.0500   2.3100  16.5300 M     1   SOL  -1.1794
837    OW  11.0400   2.6300  15.1700 O     1   SOL   0.0000
838   HW1  11.2200   3.1200  14.3600 H     1   SOL   0.5897
839   HW2  10.5800   3.2600  15.7300 H     1   SOL   0.5897
840    MW  11.0000   2.7800  15.1300 M     1   SOL  -1.1794
841    OW  10.6900   8.3000  18.8400 O     1   SOL   0.0000
842   HW1  10.2300   8.7200  19.5700 H     1   SOL   0.5897
843   HW2  11.5500   8.7300  18.8200 H     1   SOL   0.5897
844    MW  10.7400   8.4100  18.9300 M     1   SOL  -1.1794
845    OW  10.2400   6.8200  12.9100 O     1   SOL   0.0000
846   HW1   9.6300   7.0200  13.6200 H     1   SOL   0.5897
847   HW2  10.3800   5.8800  12.9600 H     1   SOL   0.5897
848    MW  10.1800   6.7200  13.0100 M     1   SOL  -1.1794
849    OW   0.9900  11.4800  21.5400 O     1   SOL   0.0000
850   HW1   1.2200  11.1500  20.6700 H     1   SOL   0.5897
851   HW2   1.8100  11.4100  22.0400 H     1   SOL   0.5897
852    MW   1.1300  11.4300  21.4900 M     1   SOL  -1.1794
853    OW   9.3700   9.2700  21.0800 O     1   SOL   0.0000
854   HW1   8.5900   9.8300  21.0900 H     1   SOL   0.5897
855   HW2   9.0900   8.4700  21.5200 H     1   SOL   0.5897
856    MW   9.2300   9.2400  21.1400 M     1   SOL  -1.1794
857    OW   7.3400   0.5400  15.8600 O     1   SOL   0.0000
858   HW1   7.2100  -0.3000  16.2900 H     1   SOL   0.5897
859   HW2   6.5600   0.6700  15.3300 H     1   SOL   0.5897
860    MW   7.2200   0.4500  15.8400 M     1   SOL  -1.1794
861    OW   1.2500   2.5800  21.5300 O     1   SOL   0.0000
862   HW1   1.2400   2.9300  20.6400 H     1   SOL   0.5897
863   HW2   1.2900   1.6300  21.4200 H     1   SOL   0.5897
864    MW   1.2500   2.5000  21.4000 M     1   SOL  -1.1794
865    OW   3.3400   7.8900  19.0300 O     1   SOL   0.0000
866   HW1   3.1500   6.9600  19.1300 H     1   SOL   0.5897
867   HW2   3.8900   8.1100  19.7800 H     1   SOL   0.5897
868    MW   3.3900   7.7900  19.1400 M     1   SOL  -1.1794
869    OW   5.7400   6.6300  15.3300 O     1   SOL   0.0000
870   HW1   5.3500   7.3400  15.8500 H     1   SOL   0.5897
871   HW2   6.6500   6.9000  15.1900 H     1   SOL   0.5897
872    MW   5.8100   6.7700  15.3800 M     1   SOL  -1.1794
873    OW   5.8900   6.5100  22.6900 O     1   SOL   0.0000
874   HW1   5.5100   7.2300  22.1800 H     1   SOL   0.5897
875   HW2   5.5700   6.6500  23.5800 H     1   SOL   0.5897
876    MW   5.7900   6.6200  22.7400 M     1   SOL  -1.1794
877    OW   4.0600   2.9100  22.9400 O     1   SOL   0.0000
878   HW1   4.5500   3.4000  22.2800 H     1   SOL   0.5897
879   HW2   3.1500   3.0200  22.7000 H     1   SOL   0.5897
880    MW   4.0100   2.9900  22.8200 M     1   SOL  -1.1794
881    OW   1.5500  11.2500  16.5100 O     1   SOL   0.0000
882   HW1   1.5900  12.2100  16.5900 H     1   SOL   0.5897
883   HW2   0.7400  11.0800  16.0300 H     1   SOL   0.5897
884    MW   1.4500  11.3600  16.4600 M     1   SOL  -1.1794
885    OW   2.3200   8.9000  12.8300 O     1   SOL   0.0000
886   HW1   2.9100   8.1700  12.9700 H     1   SOL   0.5897
887   HW2   2.7400   9.4300  12.1500 H     1   SOL   0.5897
888    MW   2.4500   8.8700  12.7600 M     1   SOL  -1.1794
889    OW   2.8600   4.7500  13.1400 O     1   SOL   0.0000
890   HW1   3.3600   5.5600  13.0500 H     1   SOL   0.5897
891   HW2   1.9500   5.0300  13.1800 H     1   SOL   0.5897
892    MW   2.8100   4.9000  13.1300 M     1   SOL  -1.1794
893    OW   9.3400   4.8400  16.3400 O     1   SOL   0.0000
894   HW1   8.5500   4.3400  16.5500 H     1   SOL   0.5897
895   HW2   9.8100   4.9200  17.1700 H     1   SOL   0.5897
896    MW   9.3000   4.7800  16.4800 M     1   SOL  -1.1794
897    OW   8.9300   9.1000  16.7400 O     1   SOL   0.0000
898   HW1   8.1600   9.4700  17.1900 H     1   SOL   0.5897
899   HW2   9.4700   8.7500  17.4500 H     1   SOL   0.5897
900    MW   8.9000   9.1000  16.9000 M     1   SOL  -1.1794
901    OW   8.4400   7.1100  15.0500 O     1   SOL   0.0000
902   HW1   8.6700   7.8500  15.6100 H     1   SOL   0.5897
903   HW2   8.6800   6.3400  15.5700 H     1   SOL   0.5897
904    MW   8.5100   7.1100  15.1900 M     1   SOL  -1.1794
905    OW   3.3400  10.9500  22.5900 O     1   SOL   0.0000
906   HW1   4.0900  11.4700  22.8700 H     1   SOL   0.5897
907   HW2   3.2200  10.3100  23.2900 H     1   SOL   0.5897
908    MW   3.4300  10.9300  22.7200 M     1   SOL  -1.1794
909    OW   7.2100   0.3400  21.6000 O     1   SOL   0.0000
910   HW1   7.1100   1.2000  21.2000 H     1   SOL   0.5897
911   HW2   7.9400   0.4400  22.2100 H     1   SOL   0.5897
912    MW   7.2900   0.4700  21.6300 M     1   SOL  -1.1794
913    OW   4.3400   7.0000  12.8400 O     1   SOL   0.0000
914   HW1   4.9500   7.0100  13.5800 H     1   SOL   0.5897
915   HW2   4.9000   7.0400  12.0700 H     1   SOL   0.5897
916    MW   4.5000   7.0100  12.8400 M     1   SOL  -1.1794
917    OW   9.6700   0.7000  22.7300 O     1   SOL   0.0000
918   HW1  10.4400   0.1400  22.7000 H     1   SOL   0.5897
919   HW2   9.3500   0.6200  23.6300 H     1   SOL   0.5897
920    MW   9.7300   0.6200  22.8500 M     1   SOL  -1.1794
921    OW   0.0100   4.6700  13.0400 O     1   SOL   0.0000
922   HW1  -0.5000   5.4800  12.9900 H     1   SOL   0.5897
923   HW2  -0.2700   4.1600  12.2800 H     1   SOL   0.5897
924    MW  -0.0900   4.7100  12.9300 M     1   SOL  -1.1794
925    OW  16.7300   0.8400  14.4600 O     1   SOL   0.0000
926   HW1  16.2700   1.5400  14.9100 H     1   SOL   0.5897
927   HW2  16.2600   0.0400  14.7100 H     1   SOL   0.5897
928    MW  16.6100   0.8200  14.5600 M     1   SOL  -1.1794
929    OW  13.3300   3.9200  19.1800 O     1   SOL   0.0000
930   HW1  13.1300   3.2500  18.5200 H     1   SOL   0.5897
931   HW2  13.0100   3.5400  20.0000 H     1   SOL   0.5897
932    MW  13.2600   3.7800  19.2000 M     1   SOL  -1.1794
933    OW  21.3500   4.9300  21.0000 O     1   SOL   0.0000
934   HW1  21.2100   5.7100  21.5300 H     1   SOL   0.5897
935   HW2  20.4600   4.6300  20.7800 H     1   SOL   0.5897
936    MW  21.2100   4.9900  21.0400 M     1   SOL  -1.1794
937    OW  15.1800   2.7100  15.6000 O     1   SOL   0.0000
938   HW1  15.6800   3.3400  16.1200 H     1   SOL   0.5897
939   HW2  14.9600   3.1900  14.8000 H     1   SOL   0.5897
940    MW  15.2200   2.8600  15.5600 M     1   SOL  -1.1794
941    OW  13.2300   9.5000  19.1100 O     1   SOL   0.0000
942   HW1  13.9900   8.9600  19.3300 H     1   SOL   0.5897
943   HW2  13.1500  10.1100  19.8300 H     1   SOL   0.5897
944    MW  13.3200   9.5100  19.2400 M     1   SOL  -1.1794
945    OW  15.4200  10.4600  15.0300 O     1   SOL   0.0000
946   HW1  15.4100   9.8900  14.2600 H     1   SOL   0.5897
947   HW2  16.0400  11.1500  14.8100 H     1   SOL   0.5897
948    MW  15.5000  10.4700  14.9000 M     1   SOL  -1.1794
949    OW  19.0000  10.4500  17.6800 O     1   SOL   0.0000
950   HW1  18.2200  10.0700  17.2900 H     1   SOL   0.5897
951   HW2  19.7300  10.0800  17.1700 H     1   SOL   0.5897
952    MW  18.9900  10.3500  17.5600 M     1   SOL  -1.1794
953    OW  20.9900   6.8200  22.7300 O     1   SOL   0.0000
954   HW1  21.2600   7.7100  22.4900 H     1   SOL   0.5897
955   HW2  20.0400   6.8700  22.8100 H     1   SOL   0.5897
956    MW  20.9000   6.9500  22.7000 M     1   SOL  -1.1794
957    OW  22.6600   3.2300  22.9100 O     1   SOL   0.0000
958   HW1  23.5200   3.0900  22.5200 H     1   SOL   0.5897
959   HW2  22.2400   3.8800  22.3400 H     1   SOL   0.5897
960    MW  22.7200   3.3000  22.7800 M     1   SOL  -1.1794
961    OW  16.8500   4.3500  16.9700 O     1   SOL   0.0000
962   HW1  16.9600   5.1800  16.5200 H     1   SOL   0.5897
963   HW2  16.4800   4.5800  17.8200 H     1   SOL   0.5897
964    MW  16.8100   4.4900  17.0200 M     1   SOL  -1.1794
965    OW  15.7800   5.2700  19.3600 O     1   SOL   0.0000
966   HW1  14.8600   5.0200  19.3100 H     1   SOL   0.5897
967   HW2  15.7700   6.2300  19.3200 H     1   SOL   0.5897
968    MW  15.6600   5.3700  19.3500 M     1   SOL  -1.1794
969    OW  16.8700   8.9900  16.8400 O     1   SOL   0.0000
970   HW1  16.3700   9.5200  16.2200 H     1   SOL   0.5897
971   HW2  17.1100   8.2000  16.3400 H     1   SOL   0.5897
972    MW  16.8400   8.9500  16.6900 M     1   SOL  -1.1794
973    OW  16.9600   4.1400  21.4500 O     1   SOL   0.0000
974   HW1  16.3000   3.7200  22.0000 H     1   SOL   0.5897
975   HW2  16.4700   4.5900  20.7700 H     1   SOL   0.5897
976    MW  16.8100   4.1400  21.4300 M     1   SOL  -1.1794
977    OW  21.6700   0.7600  14.7500 O     1   SOL   0.0000
978   HW1  22.1300   1.5800  14.9000 H     1   SOL   0.5897
979   HW2  21.5300   0.7300  13.8000 H     1   SOL   0.5897
980    MW  21.7100   0.8600  14.6400 M     1   SOL  -1.1794
981    OW  19.2700   2.9900  17.4300 O     1   SOL   0.0000
982   HW1  18.4000   3.3000  17.1800 H     1   SOL   0.5897
983   HW2  19.3000   2.0800  17.1200 H     1   SOL   0.5897
984    MW  19.1500   2.9100  17.3500 M     1   SOL  -1.1794
985    OW  22.9800  10.8500  15.2100 O     1   SOL   0.0000
986   HW1  22.3800  11.5400  14.9200 H     1   SOL   0.5897
987   HW2  23.0300  10.2500  14.4700 H     1   SOL   0.5897
988    MW  22.9000  10.8600  15.0700 M     1   SOL  -1.1794
989    OW  19.2400  10.3900  20.6600 O     1   SOL   0.0000
990   HW1  19.1800  10.5100  19.7100 H     1   SOL   0.5897
991   HW2  19.1100  11.2700  21.0200 H     1   SOL   0.5897
992    MW  19.2100  10.5200  20.5800 M     1   SOL  -1.1794
993    OW  22.9200   5.9400  18.7700 O     1   SOL   0.0000
994   HW1  22.6800   6.8700  18.7600 H     1   SOL   0.5897
995   HW2  22.6800   5.6400  19.6400 H     1   SOL   0.5897
996    MW  22.8600   6.0300  18.8800 M     1   SOL  -1.1794
997    OW  17.1300   0.9300  23.7500 O     1   SOL   0.0000
998   HW1  16.5800   0.2500  23.3700 H     1   SOL   0.5897
999   HW2  17.8400   1.0500  23.1200 H     1   SOL   0.5897
1000    MW  17.1500   0.8500  23.6100 M     1   SOL  -1.1794
1001    OW  19.2300   3.2500  20.2000 O     1   SOL   0.0000
1002   HW1  18.3800   3.5900  20.4800 H     1   SOL   0.5897
1003   HW2  19.1600   3.1500  19.2500 H     1   SOL   0.5897
1004    MW  19.1100   3.2800  20.1100 M     1   SOL  -1.1794
1005    OW  16.9200   8.5800  21.4500 O     1   SOL   0.0000
1006   HW1  17.7300   9.0700  21.3400 H     1   SOL   0.5897
1007   HW2  17.1900   7.7500  21.8400 H     1   SOL   0.5897
1008    MW  17.0700   8.5300  21.4900 M     1   SOL  -1.1794
1009    OW  23.4500   9.0100  13.0200 O     1   SOL   0.0000
1010   HW1  24.3800   8.7800  13.0700 H     1   SOL   0.5897
1011   HW2  22.9900   8.1700  13.0900 H     1   SOL   0.5897
1012    MW  23.5100   8.8600  13.0300 M     1   SOL  -1.1794
1013    OW  23.1400  10.5100  23.3000 O     1   SOL   0.0000
1014   HW1  23.8400  10.8800  22.7500 H     1   SOL   0.5897
1015   HW2  23.5500   9.7700  23.7400 H     1   SOL   0.5897
1016    MW  23.2900  10.4600  23.2800 M     1   SOL  -1.1794
1017    OW  12.8900   2.1100  17.0900 O     1   SOL   0.0000
1018   HW1  13.7000   2.4400  16.7000 H     1   SOL   0.5897
1019   HW2  12.2100   2.3300  16.4600 H     1   SOL   0.5897
1020    MW  12.9100   2.1800  16.9500 M     1   SOL  -1.1794
1021    OW  22.8900   3.2500  15.3100 O     1   SOL   0.0000
1022   HW1  22.3900   3.8900  15.8000 H     1   SOL   0.5897
1023   HW2  23.2300   3.7300  14.5600 H     1   SOL   0.5897
1024    MW  22.8700   3.4000  15.2700 M     1   SOL  -1.1794
1025    OW  22.6800   8.7300  18.7500 O     1   SOL   0.0000
1026   HW1  23.5600   9.0800  18.6800 H     1   SOL   0.5897
1027   HW2  22.3700   9.0100  19.6100 H     1   SOL   0.5897
1028    MW  22.7600   8.8100  18.8500 M     1   SOL  -1.1794
1029    OW  22.1000   6.7400  12.9700 O     1   SOL   0.0000
1030   HW1  21.5400   6.8000  12.1900 H     1   SOL   0.5897
1031   HW2  21.4900   6.8000  13.7000 H     1   SOL   0.5897
1032    MW  21.9400   6.7600  12.9600 M     1   SOL  -1.1794
1033    OW  13.3600  11.5500  21.0100 O     1   SOL   0.0000
1034   HW1  12.5900  11.3800  21.5500 H     1   SOL   0.5897
1035   HW2  14.1000  11.3000  21.5600 H     1   SOL   0.5897
1036    MW  13.3600  11.4900  21.1500 M     1   SOL  -1.1794
1037    OW  21.6500   9.2100  21.2200 O     1   SOL   0.0000
1038   HW1  22.2300   9.7000  21.8000 H     1   SOL   0.5897
1039   HW2  20.8400   9.7200  21.2000 H     1   SOL   0.5897
1040    MW  21.6200   9.3500  21.2900 M     1   SOL  -1.1794
1041    OW  19.2300   0.7500  15.9300 O     1   SOL   0.0000
1042   HW1  18.5000   0.6400  15.3300 H     1   SOL   0.5897
1043   HW2  20.0100   0.7000  15.3800 H     1   SOL   0.5897
1044    MW  19.2400   0.7300  15.7800 M     1   SOL  -1.1794
1045    OW  12.8500   2.8200  21.8400 O     1   SOL   0.0000
1046   HW1  13.6100   3.1100  22.3400 H     1   SOL   0.5897
1047   HW2  12.0900   3.0900  22.3600 H     1   SOL   0.5897
1048    MW  12.8500   2.9000  21.9800 M     1   SOL  -1.1794
1049    OW  15.5300   7.9500  19.2200 O     1   SOL   0.0000
1050   HW1  15.9200   8.3700  18.4500 H     1   SOL   0.5897
1051   HW2  16.0300   8.2800  19.9600 H     1   SOL   0.5897
1052    MW  15.6500   8.0500  19.2100 M     1   SOL  -1.1794
1053    OW  17.3500   6.6500  15.3100 O     1   SOL   0.0000
1054   HW1  17.0200   6.3700  14.4500 H     1   SOL   0.5897
1055   HW2  18.3000   6.7500  15.1800 H     1   SOL   0.5897
1056    MW  17.4400   6.6300  15.1700 M     1   SOL  -1.1794
1057    OW  17.9300   6.5600  22.8900 O     1   SOL   0.0000
1058   HW1  17.5200   5.7600  22.5500 H     1   SOL   0.5897
1059   HW2  17.5400   6.6800  23.7500 H     1   SOL   0.5897
1060    MW  17.8200   6.4700  22.9600 M     1   SOL  -1.1794
1061    OW  15.4000   3.0200  23.5800 O     1   SOL   0.0000
1062   HW1  15.5900   3.5700  24.3400 H     1   SOL   0.5897
1063   HW2  15.9900   2.2700  23.6800 H     1   SOL   0.5897
1064    MW  15.5000   2.9900  23.7000 M     1   SOL  -1.1794
1065    OW  13.3400  11.1700  16.6500 O     1   SOL   0.0000
1066   HW1  14.0100  11.0100  15.9800 H     1   SOL   0.5897
1067   HW2  13.4000  10.4100  17.2300 H     1   SOL   0.5897
1068    MW  13.4400  11.0400  16.6400 M     1   SOL  -1.1794
1069    OW  14.8300   8.7400  12.9300 O     1   SOL   0.0000
1070   HW1  13.8900   8.7500  13.1400 H     1   SOL   0.5897
1071   HW2  14.9400   9.4300  12.2800 H     1   SOL   0.5897
1072    MW  14.7200   8.8400  12.8700 M     1   SOL  -1.1794
1073    OW  14.4200   4.2900  13.2500 O     1   SOL   0.0000
1074   HW1  15.0400   5.0100  13.1700 H     1   SOL   0.5897
1075   HW2  14.6200   3.7100  12.5200 H     1   SOL   0.5897
1076    MW  14.5300   4.3100  13.1400 M     1   SOL  -1.1794
1077    OW  21.2100   5.0000  16.7500 O     1   SOL   0.0000
1078   HW1  21.8200   5.2200  17.4600 H     1   SOL   0.5897
1079   HW2  20.7200   4.2500  17.0800 H     1   SOL   0.5897
1080    MW  21.2300   4.9300  16.8900 M     1   SOL  -1.1794
1081    OW  21.2600   9.2600  16.3800 O     1   SOL   0.0000
1082   HW1  21.6700   9.0700  17.2300 H     1   SOL   0.5897
1083   HW2  21.7300  10.0300  16.0600 H     1   SOL   0.5897
1084    MW  21.3800   9.3400  16.4500 M     1   SOL  -1.1794
1085    OW  20.3400   7.0000  15.1600 O     1   SOL   0.0000
1086   HW1  20.6500   7.7900  15.6100 H     1   SOL   0.5897
1087   HW2  20.4200   6.3100  15.8100 H     1   SOL   0.5897
1088    MW  20.3900   7.0200  15.3100 M     1   SOL  -1.1794
1089    OW  15.4400  10.5500  22.5800 O     1   SOL   0.0000
1090   HW1  16.0400   9.8700  22.2700 H     1   SOL   0.5897
1091   HW2  16.0100  11.2500  22.9000 H     1   SOL   0.5897
1092    MW  15.6000  10.5600  22.5800 M     1   SOL  -1.1794
1093    OW  19.2700   0.8100  21.5300 O     1   SOL   0.0000
1094   HW1  19.3200   1.6000  20.9900 H     1   SOL   0.5897
1095   HW2  19.8700   0.9800  22.2500 H     1   SOL   0.5897
1096    MW  19.3600   0.9400  21.5600 M     1   SOL  -1.1794
1097    OW  16.2000   6.2700  12.9700 O     1   SOL   0.0000
1098   HW1  15.8100   7.1300  13.1400 H     1   SOL   0.5897
1099   HW2  16.7200   6.4000  12.1700 H     1   SOL   0.5897
1100    MW  16.2200   6.4100  12.8900 M     1   SOL  -1.1794
1101    OW  21.1000   1.0400  23.5200 O     1   SOL   0.0000
1102   HW1  21.8200   1.6700  23.4700 H     1   SOL   0.5897
1103   HW2  20.5600   1.3400  24.2500 H     1   SOL   0.5897
1104    MW  21.1300   1.1700  23.6100 M     1   SOL  -1.1794
1105    OW  11.9000  16.6700  12.3600 O     1   SOL   0.0000
1106   HW1  11.3300  17.4500  12.3200 H     1   SOL   0.5897
1107   HW2  11.6300  16.2200  13.1600 H     1   SOL   0.5897
1108    MW  11.7800  16.7200  12.4600 M     1   SOL  -1.1794
1109    OW   5.2600  12.7500  13.9400 O     1   SOL   0.0000
1110   HW1   4.6900  11.9900  14.0800 H     1   SOL   0.5897
1111   HW2   5.9500  12.6500  14.6100 H     1   SOL   0.5897
1112    MW   5.2800  12.6300  14.0500 M     1   SOL  -1.1794
1113    OW   1.5800  15.3700  18.4500 O     1   SOL   0.0000
1114   HW1   2.2700  16.0100  18.6100 H     1   SOL   0.5897
1115   HW2   1.4000  14.9900  19.3100 H     1   SOL   0.5897
1116    MW   1.6500  15.4000  18.5900 M     1   SOL  -1.1794
1117    OW   9.6700  16.4000  21.0900 O     1   SOL   0.0000
1118   HW1  10.2800  15.8600  21.5900 H     1   SOL   0.5897
1119   HW2  10.1700  16.7100  20.3400 H     1   SOL   0.5897
1120    MW   9.8200  16.3700  21.0600 M     1   SOL  -1.1794
1121    OW   4.1700  14.9300  15.2000 O     1   SOL   0.0000
1122   HW1   3.5300  14.5000  15.7800 H     1   SOL   0.5897
1123   HW2   4.5700  14.2100  14.7100 H     1   SOL   0.5897
1124    MW   4.1400  14.7700  15.2200 M     1   SOL  -1.1794
1125    OW   1.2500  21.8800  19.0400 O     1   SOL   0.0000
1126   HW1   1.9600  21.2500  18.9100 H     1   SOL   0.5897
1127   HW2   1.4400  22.5800  18.4200 H     1   SOL   0.5897
1128    MW   1.3700  21.8900  18.9400 M     1   SOL  -1.1794
1129    OW   3.5300  22.5600  15.1200 O     1   SOL   0.0000
1130   HW1   4.0200  22.0100  15.7200 H     1   SOL   0.5897
1131   HW2   3.1900  21.9700  14.4500 H     1   SOL   0.5897
1132    MW   3.5500  22.4100  15.1100 M     1   SOL  -1.1794
1133    OW   7.2500  22.1000  17.5200 O     1   SOL   0.0000
1134   HW1   7.2100  22.1000  18.4800 H     1   SOL   0.5897
1135   HW2   8.0900  21.6900  17.3100 H     1   SOL   0.5897
1136    MW   7.3600  22.0500  17.6200 M     1   SOL  -1.1794
1137    OW   9.2000  18.5700  22.7400 O     1   SOL   0.0000
1138   HW1   9.3200  17.8400  22.1300 H     1   SOL   0.5897
1139   HW2   8.2500  18.6400  22.8300 H     1   SOL   0.5897
1140    MW   9.0900  18.4800  22.6700 M     1   SOL  -1.1794
1141    OW  11.1500  14.9600  22.8600 O     1   SOL   0.0000
1142   HW1  11.7800  14.7000  22.1900 H     1   SOL   0.5897
1143   HW2  10.6800  14.1500  23.0800 H     1   SOL   0.5897
1144    MW  11.1700  14.8100  22.8000 M     1   SOL  -1.1794
1145    OW   5.3300  16.6800  16.8500 O     1   SOL   0.0000
1146   HW1   4.8100  16.1900  16.2100 H     1   SOL   0.5897
1147   HW2   4.7400  16.8000  17.6000 H     1   SOL   0.5897
1148    MW   5.1800  16.6300  16.8700 M     1   SOL  -1.1794
1149    OW   3.7000  17.0800  19.1100 O     1   SOL   0.0000
1150   HW1   3.6300  18.0400  19.1400 H     1   SOL   0.5897
1151   HW2   4.0500  16.8500  19.9700 H     1   SOL   0.5897
1152    MW   3.7400  17.1800  19.2300 M     1   SOL  -1.1794
1153    OW   4.8400  20.9800  16.8900 O     1   SOL   0.0000
1154   HW1   5.1400  20.2100  16.3900 H     1   SOL   0.5897
1155   HW2   5.6400  21.4600  17.1000 H     1   SOL   0.5897
1156    MW   4.9900  20.9400  16.8500 M     1   SOL  -1.1794
1157    OW   5.3300  16.3900  21.4800 O     1   SOL   0.0000
1158   HW1   5.6400  17.0700  22.0700 H     1   SOL   0.5897
1159   HW2   6.1200  16.0600  21.0500 H     1   SOL   0.5897
1160    MW   5.4700  16.4400  21.5100 M     1   SOL  -1.1794
1161    OW   9.6300  13.0300  14.4400 O     1   SOL   0.0000
1162   HW1   9.9600  12.2100  14.8100 H     1   SOL   0.5897
1163   HW2   9.8000  12.9600  13.5000 H     1   SOL   0.5897
1164    MW   9.7000  12.9100  14.3700 M     1   SOL  -1.1794
1165    OW   7.4800  14.9900  17.1800 O     1   SOL   0.0000
1166   HW1   7.6700  14.7400  18.0800 H     1   SOL   0.5897
1167   HW2   6.7200  15.5700  17.2500 H     1   SOL   0.5897
1168    MW   7.4000  15.0300  17.3100 M     1   SOL  -1.1794
1169    OW  10.7900  22.7300  15.1600 O     1   SOL   0.0000
1170   HW1  11.4500  23.1300  15.7400 H     1   SOL   0.5897
1171   HW2  10.4100  23.4700  14.6900 H     1   SOL   0.5897
1172    MW  10.8300  22.8800  15.1800 M     1   SOL  -1.1794
1173    OW   7.1400  21.9100  20.1600 O     1   SOL   0.0000
1174   HW1   7.1100  22.7900  20.5300 H     1   SOL   0.5897
1175   HW2   8.0000  21.5800  20.4000 H     1   SOL   0.5897
1176    MW   7.2500  21.9800  20.2500 M     1   SOL  -1.1794
1177    OW  11.1600  17.1900  19.0300 O     1   SOL   0.0000
1178   HW1  10.8700  16.9500  18.1400 H     1   SOL   0.5897
1179   HW2  11.2600  18.1400  18.9900 H     1   SOL   0.5897
1180    MW  11.1300  17.2900  18.9000 M     1   SOL  -1.1794
1181    OW   4.8600  13.1900  23.3800 O     1   SOL   0.0000
1182   HW1   4.3700  13.9600  23.0800 H     1   SOL   0.5897
1183   HW2   5.0200  13.3500  24.3100 H     1   SOL   0.5897
1184    MW   4.8100  13.3100  23.4600 M     1   SOL  -1.1794
1185    OW   7.5000  15.0700  20.1800 O     1   SOL   0.0000
1186   HW1   8.2800  15.5700  20.4200 H     1   SOL   0.5897
1187   HW2   7.5000  14.3200  20.7700 H     1   SOL   0.5897
1188    MW   7.6000  15.0400  20.2900 M     1   SOL  -1.1794
1189    OW   5.0500  20.5300  21.3000 O     1   SOL   0.0000
1190   HW1   4.5600  21.2000  21.7900 H     1   SOL   0.5897
1191   HW2   5.7900  21.0000  20.9200 H     1   SOL   0.5897
1192    MW   5.0800  20.6800  21.3200 M     1   SOL  -1.1794
1193    OW  11.3400  21.5300  12.7000 O     1   SOL   0.0000
1194   HW1  11.1600  21.9200  13.5600 H     1   SOL   0.5897
1195   HW2  12.2500  21.2300  12.7600 H     1   SOL   0.5897
1196    MW  11.4400  21.5500  12.8200 M     1   SOL  -1.1794
1197    OW  11.4400  22.5400  22.4000 O     1   SOL   0.0000
1198   HW1  12.2500  22.7300  21.9400 H     1   SOL   0.5897
1199   HW2  11.7100  22.1500  23.2300 H     1   SOL   0.5897
1200    MW  11.5800  22.5100  22.4500 M     1   SOL  -1.1794
1201    OW   1.5800  14.0100  16.0900 O     1   SOL   0.0000
1202   HW1   1.3700  14.5100  16.8800 H     1   SOL   0.5897
1203   HW2   0.9800  14.3600  15.4300 H     1   SOL   0.5897
1204    MW   1.4700  14.1300  16.1100 M     1   SOL  -1.1794
1205    OW  11.2800  15.1800  14.6600 O     1   SOL   0.0000
1206   HW1  10.7800  14.3800  14.4600 H     1   SOL   0.5897
1207   HW2  11.9700  14.8800  15.2500 H     1   SOL   0.5897
1208    MW  11.3000  15.0300  14.7100 M     1   SOL  -1.1794
1209    OW  11.4100  20.0800  18.9100 O     1   SOL   0.0000
1210   HW1  10.9700  20.4900  19.6600 H     1   SOL   0.5897
1211   HW2  10.8200  20.2500  18.1800 H     1   SOL   0.5897
1212    MW  11.2700  20.1600  18.9100 M     1   SOL  -1.1794
1213    OW  10.1900  18.7700  12.7200 O     1   SOL   0.0000
1214   HW1  10.4500  19.6900  12.6900 H     1   SOL   0.5897
1215   HW2   9.7100  18.6800  13.5500 H     1   SOL   0.5897
1216    MW  10.1600  18.8800  12.8300 M     1   SOL  -1.1794
1217    OW   1.2700  23.7100  21.3800 O     1   SOL   0.0000
1218   HW1   1.1200  23.1500  20.6200 H     1   SOL   0.5897
1219   HW2   0.6400  23.4100  22.0300 H     1   SOL   0.5897
1220    MW   1.1700  23.5900  21.3600 M     1   SOL  -1.1794
1221    OW   9.5200  20.8800  21.2900 O     1   SOL   0.0000
1222   HW1   9.4400  20.1000  21.8300 H     1   SOL   0.5897
1223   HW2  10.3200  21.3000  21.5900 H     1   SOL   0.5897
1224    MW   9.6200  20.8300  21.4000 M     1   SOL  -1.1794
1225    OW   7.2200  12.6400  15.7200 O     1   SOL   0.0000
1226   HW1   8.0000  12.7800  15.1800 H     1   SOL   0.5897
1227   HW2   7.0500  13.4900  16.1200 H     1   SOL   0.5897
1228    MW   7.3000  12.7700  15.7000 M     1   SOL  -1.1794
1229    OW   1.1400  14.2400  21.1200 O     1   SOL   0.0000
1230   HW1   1.0500  13.2900  21.1000 H     1   SOL   0.5897
1231   HW2   0.4400  14.5300  21.7000 H     1   SOL   0.5897
1232    MW   1.0300  14.1500  21.1900 M     1   SOL  -1.1794
1233    OW   3.3200  20.0200  19.0900 O     1   SOL   0.0000
1234   HW1   3.7900  20.1600  19.9100 H     1   SOL   0.5897
1235   HW2   3.9500  20.2500  18.4100 H     1   SOL   0.5897
1236    MW   3.4700  20.0700  19.1100 M     1   SOL  -1.1794
1237    OW   6.0100  19.0200  15.3600 O     1   SOL   0.0000
1238   HW1   5.7800  18.1600  15.7400 H     1   SOL   0.5897
1239   HW2   5.4600  19.0900  14.5800 H     1   SOL   0.5897
1240    MW   5.9000  18.9100  15.3100 M     1   SOL  -1.1794
1241    OW   6.3700  18.5600  22.8100 O     1   SOL   0.0000
1242   HW1   5.8800  19.2200  22.3200 H     1   SOL   0.5897
1243   HW2   6.3100  18.8400  23.7200 H     1   SOL   0.5897
1244    MW   6.3000  18.6800  22.8700 M     1   SOL  -1.1794
1245    OW   3.3000  15.3500  22.9000 O     1   SOL   0.0000
1246   HW1   2.7100  15.0600  22.2100 H     1   SOL   0.5897
1247   HW2   4.0900  15.6400  22.4300 H     1   SOL   0.5897
1248    MW   3.3300  15.3500  22.7400 M     1   SOL  -1.1794
1249    OW   1.3900  23.5900  16.7500 O     1   SOL   0.0000
1250   HW1   2.1600  23.3900  16.2100 H     1   SOL   0.5897
1251   HW2   0.6900  23.0500  16.3800 H     1   SOL   0.5897
1252    MW   1.4000  23.4900  16.6200 M     1   SOL  -1.1794
1253    OW   2.6900  20.8700  12.9400 O     1   SOL   0.0000
1254   HW1   3.3300  20.1600  12.9200 H     1   SOL   0.5897
1255   HW2   2.9800  21.4800  12.2700 H     1   SOL   0.5897
1256    MW   2.8200  20.8600  12.8500 M     1   SOL  -1.1794
1257    OW   3.2700  16.3800  12.9700 O     1   SOL   0.0000
1258   HW1   3.4900  15.9500  13.7900 H     1   SOL   0.5897
1259   HW2   3.2300  15.6700  12.3300 H     1   SOL   0.5897
1260    MW   3.2900  16.2200  12.9900 M     1   SOL  -1.1794
1261    OW   9.8100  16.4400  16.6200 O     1   SOL   0.0000
1262   HW1  10.2500  15.9600  15.9200 H     1   SOL   0.5897
1263   HW2   9.0100  15.9300  16.7900 H     1   SOL   0.5897
1264    MW   9.7600  16.3000  16.5500 M     1   SOL  -1.1794
1265    OW   9.6400  20.9300  16.9400 O     1   SOL   0.0000
1266   HW1   9.3200  20.1300  16.5100 H     1   SOL   0.5897
1267   HW2   9.9800  21.4700  16.2200 H     1   SOL   0.5897
1268    MW   9.6400  20.8900  16.7800 M     1   SOL  -1.1794
1269    OW   8.7500  18.7800  15.1300 O     1   SOL   0.0000
1270   HW1   7.8100  18.8200  15.2800 H     1   SOL   0.5897
1271   HW2   9.0400  17.9900  15.5900 H     1   SOL   0.5897
1272    MW   8.6600  18.6800  15.2100 M     1   SOL  -1.1794
1273    OW   3.3500  22.3000  22.7300 O     1   SOL   0.0000
1274   HW1   3.9500  23.0200  22.9400 H     1   SOL   0.5897
1275   HW2   2.5900  22.7300  22.3300 H     1   SOL   0.5897
1276    MW   3.3300  22.4500  22.7000 M     1   SOL  -1.1794
1277    OW   7.0200  12.7500  21.7900 O     1   SOL   0.0000
1278   HW1   6.1900  12.8900  22.2500 H     1   SOL   0.5897
1279   HW2   7.6900  12.8900  22.4700 H     1   SOL   0.5897
1280    MW   7.0000  12.7900  21.9500 M     1   SOL  -1.1794
1281    OW   4.5800  18.7800  13.0600 O     1   SOL   0.0000
1282   HW1   4.9700  18.6700  12.1900 H     1   SOL   0.5897
1283   HW2   4.0500  18.0000  13.1900 H     1   SOL   0.5897
1284    MW   4.5600  18.6600  12.9600 M     1   SOL  -1.1794
1285    OW   9.4100  12.9700  23.5200 O     1   SOL   0.0000
1286   HW1   9.9700  12.1900  23.4200 H     1   SOL   0.5897
1287   HW2   9.0200  12.8700  24.3800 H     1   SOL   0.5897
1288    MW   9.4300  12.8500  23.6200 M     1   SOL  -1.1794
1289    OW   0.3500  16.2900  12.6200 O     1   SOL   0.0000
1290   HW1  -0.0500  17.1600  12.6200 H     1   SOL   0.5897
1291   HW2   1.2900  16.4600  12.7500 H     1   SOL   0.5897
1292    MW   0.4300  16.4300  12.6400 M     1   SOL  -1.1794
1293    OW  16.8900  12.9000  14.4000 O     1   SOL   0.0000
1294   HW1  17.7300  12.8700  14.8700 H     1   SOL   0.5897
1295   HW2  17.1300  12.8200  13.4800 H     1   SOL   0.5897
1296    MW  17.0400  12.8900  14.3400 M     1   SOL  -1.1794
1297    OW  13.7000  15.4200  18.6300 O     1   SOL   0.0000
1298   HW1  14.4100  16.0600  18.5400 H     1   SOL   0.5897
1299   HW2  12.9200  15.9500  18.8100 H     1   SOL   0.5897
1300    MW  13.6900  15.5800  18.6400 M     1   SOL  -1.1794
1301    OW  21.7900  16.4300  21.3900 O     1   SOL   0.0000
1302   HW1  21.5300  17.2200  21.8700 H     1   SOL   0.5897
1303   HW2  22.2600  16.7600  20.6300 H     1   SOL   0.5897
1304    MW  21.8200  16.5800  21.3600 M     1   SOL  -1.1794
1305    OW  15.2900  15.2100  14.9800 O     1   SOL   0.0000
1306   HW1  15.9100  14.5900  14.5900 H     1   SOL   0.5897
1307   HW2  14.4800  14.7100  15.0700 H     1   SOL   0.5897
1308    MW  15.2700  15.0600  14.9400 M     1   SOL  -1.1794
1309    OW  13.6700  21.8900  18.7600 O     1   SOL   0.0000
1310   HW1  13.0000  21.2300  18.9400 H     1   SOL   0.5897
1311   HW2  13.3800  22.3000  17.9500 H     1   SOL   0.5897
1312    MW  13.5400  21.8600  18.6800 M     1   SOL  -1.1794
1313    OW  15.1800  22.5600  14.7500 O     1   SOL   0.0000
1314   HW1  14.7900  21.9400  14.1200 H     1   SOL   0.5897
1315   HW2  15.7200  22.0100  15.3200 H     1   SOL   0.5897
1316    MW  15.2000  22.4000  14.7400 M     1   SOL  -1.1794
1317    OW  19.4200  22.1900  17.4100 O     1   SOL   0.0000
1318   HW1  19.4800  22.2400  18.3600 H     1   SOL   0.5897
1319   HW2  19.5200  23.0900  17.1100 H     1   SOL   0.5897
1320    MW  19.4400  22.3200  17.5000 M     1   SOL  -1.1794
1321    OW  20.5200  18.6500  22.2500 O     1   SOL   0.0000
1322   HW1  20.8600  19.5200  22.0400 H     1   SOL   0.5897
1323   HW2  19.6200  18.6500  21.9200 H     1   SOL   0.5897
1324    MW  20.4500  18.7700  22.1700 M     1   SOL  -1.1794
1325    OW  22.8400  14.5500  23.1700 O     1   SOL   0.0000
1326   HW1  22.3800  15.1300  22.5600 H     1   SOL   0.5897
1327   HW2  22.2800  13.7900  23.2500 H     1   SOL   0.5897
1328    MW  22.7000  14.5300  23.1000 M     1   SOL  -1.1794
1329    OW  16.7700  16.8100  16.6500 O     1   SOL   0.0000
1330   HW1  16.2600  16.2800  16.0300 H     1   SOL   0.5897
1331   HW2  17.1300  17.5200  16.1300 H     1   SOL   0.5897
1332    MW  16.7500  16.8300  16.5000 M     1   SOL  -1.1794
1333    OW  15.5300  17.6200  18.8800 O     1   SOL   0.0000
1334   HW1  16.0200  17.4700  18.0700 H     1   SOL   0.5897
1335   HW2  16.0300  17.1500  19.5500 H     1   SOL   0.5897
1336    MW  15.6700  17.5400  18.8600 M     1   SOL  -1.1794
1337    OW  17.1100  21.1100  16.3500 O     1   SOL   0.0000
1338   HW1  17.9000  21.5100  16.7200 H     1   SOL   0.5897
1339   HW2  16.6600  20.7200  17.1000 H     1   SOL   0.5897
1340    MW  17.1600  21.1100  16.5000 M     1   SOL  -1.1794
1341    OW  17.2500  16.4600  20.6900 O     1   SOL   0.0000
1342   HW1  18.0000  15.9100  20.4900 H     1   SOL   0.5897
1343   HW2  16.6500  15.8800  21.1600 H     1   SOL   0.5897
1344    MW  17.2700  16.3100  20.7300 M     1   SOL  -1.1794
1345    OW  21.4900  12.9700  14.2300 O     1   SOL   0.0000
1346   HW1  20.7700  12.8500  14.8400 H     1   SOL   0.5897
1347   HW2  21.1100  12.7700  13.3700 H     1   SOL   0.5897
1348    MW  21.3400  12.9200  14.2000 M     1   SOL  -1.1794
1349    OW  19.1700  15.0000  17.2900 O     1   SOL   0.0000
1350   HW1  18.3400  15.4100  17.0500 H     1   SOL   0.5897
1351   HW2  19.1400  14.9500  18.2500 H     1   SOL   0.5897
1352    MW  19.0600  15.0500  17.3900 M     1   SOL  -1.1794
1353    OW  23.4200  22.3800  15.2800 O     1   SOL   0.0000
1354   HW1  22.7600  21.8300  15.6900 H     1   SOL   0.5897
1355   HW2  22.9900  23.2200  15.1400 H     1   SOL   0.5897
1356    MW  23.2800  22.4200  15.3200 M     1   SOL  -1.1794
1357    OW  19.5000  22.2200  20.2400 O     1   SOL   0.0000
1358   HW1  19.4800  23.1300  20.5400 H     1   SOL   0.5897
1359   HW2  18.6200  21.8900  20.4300 H     1   SOL   0.5897
1360    MW  19.3800  22.3000  20.3100 M     1   SOL  -1.1794
1361    OW  23.1500  17.0700  18.8200 O     1   SOL   0.0000
1362   HW1  22.6800  16.9700  18.0000 H     1   SOL   0.5897
1363   HW2  23.8900  16.4600  18.7600 H     1   SOL   0.5897
1364    MW  23.1900  16.9700  18.7000 M     1   SOL  -1.1794
1365    OW  16.9400  12.6900  23.4200 O     1   SOL   0.0000
1366   HW1  16.2400  13.3000  23.1500 H     1   SOL   0.5897
1367   HW2  16.9300  12.7200  24.3700 H     1   SOL   0.5897
1368    MW  16.8400  12.7800  23.5100 M     1   SOL  -1.1794
1369    OW  19.6300  15.0900  20.1100 O     1   SOL   0.0000
1370   HW1  19.5100  14.4400  20.8000 H     1   SOL   0.5897
1371   HW2  20.3800  15.6100  20.4000 H     1   SOL   0.5897
1372    MW  19.7200  15.0700  20.2400 M     1   SOL  -1.1794
1373    OW  17.0600  21.1300  21.0300 O     1   SOL   0.0000
1374   HW1  17.3100  20.3000  21.4400 H     1   SOL   0.5897
1375   HW2  16.5900  20.8800  20.2300 H     1   SOL   0.5897
1376    MW  17.0300  20.9800  20.9800 M     1   SOL  -1.1794
1377    OW  23.8500  21.2500  12.8000 O     1   SOL   0.0000
1378   HW1  24.7700  21.0700  12.9500 H     1   SOL   0.5897
1379   HW2  23.5200  21.5700  13.6400 H     1   SOL   0.5897
1380    MW  23.9300  21.2700  12.9300 M     1   SOL  -1.1794
1381    OW  22.8400  22.8500  23.2000 O     1   SOL   0.0000
1382   HW1  22.3700  22.2500  22.6100 H     1   SOL   0.5897
1383   HW2  22.2300  23.5800  23.3400 H     1   SOL   0.5897
1384    MW  22.6900  22.8700  23.1400 M     1   SOL  -1.1794
1385    OW  12.9400  13.8700  16.3100 O     1   SOL   0.0000
1386   HW1  13.1300  14.3400  17.1300 H     1   SOL   0.5897
1387   HW2  13.2400  12.9700  16.4800 H     1   SOL   0.5897
1388    MW  13.0100  13.8100  16.4500 M     1   SOL  -1.1794
1389    OW  22.7900  15.2500  14.7500 O     1   SOL   0.0000
1390   HW1  22.1600  14.5500  14.6200 H     1   SOL   0.5897
1391   HW2  23.0200  15.5400  13.8600 H     1   SOL   0.5897
1392    MW  22.7400  15.2000  14.6100 M     1   SOL  -1.1794
1393    OW  22.8100  20.1200  18.9700 O     1   SOL   0.0000
1394   HW1  22.9800  19.1900  18.8800 H     1   SOL   0.5897
1395   HW2  23.6800  20.5300  18.9300 H     1   SOL   0.5897
1396    MW  22.9500  20.0500  18.9500 M     1   SOL  -1.1794
1397    OW  22.6100  18.6200  12.8600 O     1   SOL   0.0000
1398   HW1  22.9600  19.5100  12.8100 H     1   SOL   0.5897
1399   HW2  22.0100  18.6300  13.6100 H     1   SOL   0.5897
1400    MW  22.5800  18.7400  12.9600 M     1   SOL  -1.1794
1401    OW  13.5000   0.1200  21.0500 O     1   SOL   0.0000
1402   HW1  13.7100   0.2400  20.1300 H     1   SOL   0.5897
1403   HW2  12.9800   0.9000  21.2800 H     1   SOL   0.5897
1404    MW  13.4600   0.2400  20.9600 M     1   SOL  -1.1794
1405    OW  21.7000  21.1300  21.4100 O     1   SOL   0.0000
1406   HW1  21.0000  21.7200  21.1300 H     1   SOL   0.5897
1407   HW2  22.1900  20.9300  20.6100 H     1   SOL   0.5897
1408    MW  21.6700  21.1800  21.2700 M     1   SOL  -1.1794
1409    OW  19.1700  12.6500  15.8800 O     1   SOL   0.0000
1410   HW1  19.2000  13.4300  16.4300 H     1   SOL   0.5897
1411   HW2  18.9400  11.9400  16.4800 H     1   SOL   0.5897
1412    MW  19.1500  12.6600  16.0400 M     1   SOL  -1.1794
1413    OW  13.0600  14.1900  21.0300 O     1   SOL   0.0000
1414   HW1  13.1600  13.2500  20.9200 H     1   SOL   0.5897
1415   HW2  13.3300  14.5600  20.1900 H     1   SOL   0.5897
1416    MW  13.1100  14.1200  20.9100 M     1   SOL  -1.1794
1417    OW  16.0000  20.2600  18.6700 O     1   SOL   0.0000
1418   HW1  15.7600  19.3300  18.6400 H     1   SOL   0.5897
1419   HW2  15.1700  20.7200  18.5500 H     1   SOL   0.5897
1420    MW  15.8500  20.1900  18.6500 M     1   SOL  -1.1794
1421    OW  17.7900  18.8000  14.9600 O     1   SOL   0.0000
1422   HW1  17.7300  19.6200  15.4500 H     1   SOL   0.5897
1423   HW2  18.7200  18.5800  14.9700 H     1   SOL   0.5897
1424    MW  17.9000  18.8800  15.0200 M     1   SOL  -1.1794
1425    OW  17.7800  18.8200  21.8700 O     1   SOL   0.0000
1426   HW1  17.3400  18.6700  22.7000 H     1   SOL   0.5897
1427   HW2  17.5800  18.0400  21.3400 H     1   SOL   0.5897
1428    MW  17.6900  18.7000  21.9100 M     1   SOL  -1.1794
1429    OW  15.4300  14.8700  22.2200 O     1   SOL   0.0000
1430   HW1  15.2400  15.4600  22.9600 H     1   SOL   0.5897
1431   HW2  14.5600  14.6300  21.8900 H     1   SOL   0.5897
1432    MW  15.2900  14.9200  22.2800 M     1   SOL  -1.1794
1433    OW  13.1100  23.3000  16.4700 O     1   SOL   0.0000
1434   HW1  13.8000  23.1000  15.8300 H     1   SOL   0.5897
1435   HW2  13.2200  24.2300  16.6500 H     1   SOL   0.5897
1436    MW  13.2200  23.4000  16.4100 M     1   SOL  -1.1794
1437    OW  14.2400  20.9300  12.8100 O     1   SOL   0.0000
1438   HW1  14.9500  20.2900  12.8400 H     1   SOL   0.5897
1439   HW2  14.4300  21.4700  12.0400 H     1   SOL   0.5897
1440    MW  14.3600  20.9200  12.7100 M     1   SOL  -1.1794
1441    OW  14.7300  16.7400  12.6800 O     1   SOL   0.0000
1442   HW1  14.7900  16.2600  13.5000 H     1   SOL   0.5897
1443   HW2  13.7900  16.7700  12.4900 H     1   SOL   0.5897
1444    MW  14.6100  16.6800  12.7600 M     1   SOL  -1.1794
1445    OW  21.4800  16.7900  16.6100 O     1   SOL   0.0000
1446   HW1  20.8600  16.1000  16.8600 H     1   SOL   0.5897
1447   HW2  22.0100  16.4000  15.9200 H     1   SOL   0.5897
1448    MW  21.4700  16.6400  16.5500 M     1   SOL  -1.1794
1449    OW  21.5600  20.6500  16.5800 O     1   SOL   0.0000
1450   HW1  22.0300  20.4100  17.3900 H     1   SOL   0.5897
1451   HW2  20.9100  21.2900  16.8700 H     1   SOL   0.5897
1452    MW  21.5400  20.7100  16.7300 M     1   SOL  -1.1794
1453    OW  20.5000  18.5900  14.9400 O     1   SOL   0.0000
1454   HW1  20.8300  19.3800  15.3700 H     1   SOL   0.5897
1455   HW2  20.7700  17.8700  15.5100 H     1   SOL   0.5897
1456    MW  20.5800  18.6000  15.0700 M     1   SOL  -1.1794
1457    OW  15.5200  23.0100  22.6100 O     1   SOL   0.0000
1458   HW1  14.7800  23.3000  22.0700 H     1   SOL   0.5897
1459   HW2  15.9600  22.3500  22.0700 H     1   SOL   0.5897
1460    MW  15.4800  22.9600  22.4600 M     1   SOL  -1.1794
1461    OW  19.3800  12.9600  21.8800 O     1   SOL   0.0000
1462   HW1  20.0500  12.8400  22.5500 H     1   SOL   0.5897
1463   HW2  18.5700  13.0600  22.3700 H     1   SOL   0.5897
1464    MW  19.3600  12.9600  22.0400 M     1   SOL  -1.1794
1465    OW  16.3500  18.9500  12.5400 O     1   SOL   0.0000
1466   HW1  15.8100  18.1800  12.7100 H     1   SOL   0.5897
1467   HW2  16.8500  19.0700  13.3500 H     1   SOL   0.5897
1468    MW  16.3500  18.8600  12.6700 M     1   SOL  -1.1794
1469    OW  21.3300  12.3700  24.0400 O     1   SOL   0.0000
1470   HW1  21.0100  12.1800  24.9200 H     1   SOL   0.5897
1471   HW2  21.9600  11.6700  23.8600 H     1   SOL   0.5897
1472    MW  21.3700  12.2500  24.1400 M     1   SOL  -1.1794
1473     C   7.2800   4.5500  13.0200 C     1   CH4   0.0000
1474     C  19.0400  10.5400  13.0200 C     1   CH4   0.0000
1475     C   4.0700  12.4400   6.2700 C     1   CH4   0.0000
1476     C  18.2200   9.4100   1.4300 C     1   CH4   0.0000
1477     C  10.1100  12.4700  18.3500 C     1   CH4   0.0000
1478     C   2.3100   6.4900  22.0300 C     1   CH4   0.0000
1479     C  19.2800  21.5300   0.9300 C     1   CH4   0.0000
1480     C  13.7700   6.4000  16.1600 C     1   CH4   0.0000
1481     C  13.5600  18.9600  15.9100 C     1   CH4   0.0000
1482     C   8.0300   9.5900  12.4700 C     1   CH4   0.0000
1483     C  20.0200  21.5500  12.1100 C     1   CH4   0.0000
1484     C  10.0300   0.1000  19.4600 C     1   CH4   0.0000
1485     C   6.9700  15.9500   1.5700 C     1   CH4   0.0000
1486     C  12.7400  18.9200   9.4600 C     1   CH4   0.0000
1487     C   6.9900  21.9300   1.6300 C     1   CH4   0.0000
1488     C   1.5300   6.6200  15.6700 C     1   CH4   0.0000
1489     C  21.8200   0.5000  19.0300 C     1   CH4   0.0000
1490     C  19.1300   3.4500  12.5500 C     1   CH4   0.0000
1491     C   4.4200  13.5400  18.9800 C     1   CH4   0.0000
1492     C  13.6600   6.0900   3.8700 C     1   CH4   0.0000
1493     C  13.8000   7.4400  21.9000 C     1   CH4   0.0000
1494     C  21.8200  12.3900   7.5300 C     1   CH4   0.0000
1495     C   1.6900   6.9000  10.1000 C     1   CH4   0.0000
1496     C   9.0000   0.8900   6.8200 C     1   CH4   0.0000
1497     C   6.8000   9.8000   1.1500 C     1   CH4   0.0000
1498     C  12.8800   7.2100   9.5500 C     1   CH4   0.0000
1499     C   1.2200  18.9700   9.7600 C     1   CH4   0.0000
1500     C   1.8700  19.1200  15.6800 C     1   CH4   0.0000
1501     C  22.5400   0.9400   6.3500 C     1   CH4   0.0000
1502     C   1.4300  17.9800  21.4900 C     1   CH4   0.0000
1503     C  18.6100   3.7500   2.0400 C     1   CH4   0.0000
1504     C  15.4300   0.6200   6.7800 C     1   CH4   0.0000
1505     C  18.9500  15.6800  12.7600 C     1   CH4   0.0000
1506     C   7.2300   3.7600   1.6900 C     1   CH4   0.0000
1507     C   0.6300   6.9500   4.5900 C     1   CH4   0.0000
1508     C  16.7400  13.3600  19.5800 C     1   CH4   0.0000
1509     C  13.2900  18.7700   3.6300 C     1   CH4   0.0000
1510     C   4.2800   0.2100   7.0300 C     1   CH4   0.0000
1511     C  10.2800  12.8600   7.4700 C     1   CH4   0.0000
1512     C   4.2900   0.1100  19.1800 C     1   CH4   0.0000
1513     C   7.2500  21.6300  12.3800 C     1   CH4   0.0000
1514     C   7.2800  15.8400  12.2900 C     1   CH4   0.0000
1515     C   1.1600  18.4800   3.8300 C     1   CH4   0.0000
1516     C  18.9900  15.4600   0.7800 C     1   CH4   0.0000
1517     C  13.1200  18.7600  22.1600 C     1   CH4   0.0000
1518     C  22.4800  13.1800  18.0100 C     1   CH4   0.0000
1519     C  16.7300   0.3700  19.0200 C     1   CH4   0.0000
1520     C  15.8300  12.6900   6.8900 C     1   CH4   0.0000
1521     C  19.4600   7.0700  18.9600 C     1   CH4   0.0000
1522     C   7.6300  18.2800  19.0600 C     1   CH4   0.0000
1523     C  18.9300   6.8900   7.0800 C     1   CH4   0.0000
1524     C  13.0200   0.3800   0.7700 C     1   CH4   0.0000
1525     C  19.2500  18.6300   7.1400 C     1   CH4   0.0000
1526     C   0.7500  12.4400   1.1300 C     1   CH4   0.0000
1527     C   6.9900   6.9800   6.3700 C     1   CH4   0.0000
1528     C  13.1800  12.8700  12.8600 C     1   CH4   0.0000
1529     C   0.9500  12.5400  13.0700 C     1   CH4   0.0000
1530     C  12.4200  12.4000   0.5200 C     1   CH4   0.0000
1531     C   6.8700  18.8300   6.9500 C     1   CH4   0.0000
1532     C  12.6800   0.5400  12.6600 C     1   CH4   0.0000
1533     C   0.5300   1.1300   0.6700 C     1   CH4   0.0000
1534     C   0.6600   1.1700  13.1200 C     1   CH4   0.0000
1535     C  19.6800  18.5000  18.7900 C     1   CH4   0.0000
1536     C   6.9100   7.0900  18.9600 C     1   CH4   0.0000
1537     C  20.5800  23.4200  38.0900 C     1   CH4   0.0000
1538     C  10.1400   3.6000  69.4700 C     1   CH4   0.0000
1539     C   1.0800   5.9800  42.9900 C     1   CH4   0.0000
1540     C  17.2100  21.7500  25.6500 C     1   CH4   0.0000
1541     C   3.5400  23.3600  73.2400 C     1   CH4   0.0000
1542     C  20.5600  22.5500  47.3000 C     1   CH4   0.0000
1543     C  14.0000  11.1900  61.9400 C     1   CH4   0.0000
1544     C  22.6100   4.1200  28.9600 C     1   CH4   0.0000
1545     C   8.7200  10.4500  30.2800 C     1   CH4   0.0000
1546     C  16.5100  22.7800  47.3800 C     1   CH4   0.0000
1547     C  19.4000   9.5600  24.5200 C     1   CH4   0.0000
1548     C  14.3300  23.2900  30.2800 C     1   CH4   0.0000
1549     C  14.5500  21.7000  50.9300 C     1   CH4   0.0000
1550     C  19.2600   3.9900  25.1600 C     1   CH4   0.0000
1551     C  11.7600  13.2700  31.4600 C     1   CH4   0.0000
1552     C   5.0600  21.1400  67.2500 C     1   CH4   0.0000
1553     C   4.0400  11.9400  59.5500 C     1   CH4   0.0000
1554     C   1.5700  15.2400  68.0400 C     1   CH4   0.0000
1555     C  22.6400   5.2200  63.1900 C     1   CH4   0.0000
1556     C  16.3600  17.1000  46.8700 C     1   CH4   0.0000
1557     C  23.5100  19.2500  25.0400 C     1   CH4   0.0000
1558     C   9.9600  14.7800  52.3100 C     1   CH4   0.0000
1559     C   0.6300  22.7800  38.5900 C     1   CH4   0.0000
1560     C   8.9400  16.5300  45.1500 C     1   CH4   0.0000
1561     C  15.7600  14.4400  72.8500 C     1   CH4   0.0000
1562     C   0.5600  14.1000  53.3500 C     1   CH4   0.0000
1563     C   7.2100  19.7900  52.2800 C     1   CH4   0.0000
1564     C  12.5600  19.1500  46.7200 C     1   CH4   0.0000
1565     C   1.5500   4.0300  25.7200 C     1   CH4   0.0000
1566     C  10.8200   1.6600  35.2200 C     1   CH4   0.0000
1567     C   2.7700   0.7400  46.7300 C     1   CH4   0.0000
1568     C  11.0000  19.3200  71.0600 C     1   CH4   0.0000
1569     C   6.4200   9.0800  65.6400 C     1   CH4   0.0000
1570     C  12.3000  21.3600  33.9700 C     1   CH4   0.0000
1571     C  21.4400  11.4000  41.8400 C     1   CH4   0.0000
1572     C  11.3300  17.6300  32.9200 C     1   CH4   0.0000
1573     C  21.3700   8.5400  29.2200 C     1   CH4   0.0000
1574     C   2.4500  10.4600  51.3000 C     1   CH4   0.0000
1575     C   5.6400   5.5600  35.7200 C     1   CH4   0.0000
1576     C  11.5500   6.8900  51.9600 C     1   CH4   0.0000
1577     C  12.2300  22.7100  71.5800 C     1   CH4   0.0000
1578     C  16.2700  17.6700  42.8500 C     1   CH4   0.0000
1579     C   2.1200   6.9600  37.4600 C     1   CH4   0.0000
1580     C   3.2900   2.6900  58.2800 C     1   CH4   0.0000
1581     C   0.2900   6.7300  53.7400 C     1   CH4   0.0000
1582     C  10.6300  18.2500  50.3800 C     1   CH4   0.0000
1583     C  14.1400  20.7300  55.1700 C     1   CH4   0.0000
1584     C  12.8900   0.1500  40.9600 C     1   CH4   0.0000
1585     C   1.6700  19.4500  35.6200 C     1   CH4   0.0000
1586     C  23.4200   7.5900  57.0900 C     1   CH4   0.0000
1587     C   5.5400  18.0000  49.0500 C     1   CH4   0.0000
1588     C  14.8300   0.0000  64.1500 C     1   CH4   0.0000
1589     C   0.7100  21.5700  28.4600 C     1   CH4   0.0000
1590     C  11.6400  22.0400  65.1900 C     1   CH4   0.0000
1591     C   2.2400   4.4000  30.2800 C     1   CH4   0.0000
1592     C   8.4100  20.3600  47.0800 C     1   CH4   0.0000
1593     C  13.1100   6.5000  57.1600 C     1   CH4   0.0000
1594     C  15.0300  12.5700  37.3600 C     1   CH4   0.0000
1595     C  20.0600  17.8700  44.1900 C     1   CH4   0.0000
1596     C   0.7000   5.0500  59.3000 C     1   CH4   0.0000
1597     C  15.4700  12.1100  58.6600 C     1   CH4   0.0000
1598     C   7.5200   6.9200  72.5800 C     1   CH4   0.0000
1599     C   7.7500   0.6300  36.6500 C     1   CH4   0.0000
1600     C  10.1300   5.7800  45.2200 C     1   CH4   0.0000
1601     C  12.1900   1.1900  24.9800 C     1   CH4   0.0000
1602     C  17.6600  17.4500  28.7300 C     1   CH4   0.0000
1603     C   5.0400   8.6900  49.2400 C     1   CH4   0.0000
1604     C   0.1100   9.7200  45.0600 C     1   CH4   0.0000
1605     C  21.9500   4.7600  46.8100 C     1   CH4   0.0000
1606     C   8.9600  18.9000  65.8100 C     1   CH4   0.0000
1607     C  13.4400   6.2200  72.4800 C     1   CH4   0.0000
1608     C  12.0200  18.4400  63.3600 C     1   CH4   0.0000
1609     C  20.8800   0.1400  43.0700 C     1   CH4   0.0000
1610     C  19.7900   7.8200  55.1300 C     1   CH4   0.0000
1611     C   1.9100  12.6700  41.9500 C     1   CH4   0.0000
1612     C  18.8200  19.6900  36.6400 C     1   CH4   0.0000
1613     C  19.2500  14.1500  43.6300 C     1   CH4   0.0000
1614     C  16.5700  21.9800  66.6600 C     1   CH4   0.0000
1615     C  21.9800   9.9900  51.2400 C     1   CH4   0.0000
1616     C  13.0000   5.1900  24.9500 C     1   CH4   0.0000
1617     C  15.9700  11.8400  30.4900 C     1   CH4   0.0000
1618     C   7.6000  18.0600  33.0100 C     1   CH4   0.0000
1619     C  21.3000   5.5600  32.5500 C     1   CH4   0.0000
1620     C   3.0200   7.2100  27.9600 C     1   CH4   0.0000
1621     C   2.1800  16.1000  44.3200 C     1   CH4   0.0000
1622     C  10.8400   4.3000  31.4200 C     1   CH4   0.0000
1623     C  13.9500  17.5600  52.9000 C     1   CH4   0.0000
1624     C  11.6600   0.4200  68.0000 C     1   CH4   0.0000
1625     C  10.1600  20.3300  25.9100 C     1   CH4   0.0000
1626     C  14.6400  12.5800  50.7900 C     1   CH4   0.0000
1627     C   5.0100   5.4000  59.9500 C     1   CH4   0.0000
1628     C   4.5200   9.7000  36.8400 C     1   CH4   0.0000
1629     C   2.0400   0.3900  25.1000 C     1   CH4   0.0000
1630     C  10.9900  20.2300  57.5500 C     1   CH4   0.0000
1631     C   4.3200   1.2500  32.3900 C     1   CH4   0.0000
1632     C   8.9700  14.1800  58.9300 C     1   CH4   0.0000
1633     C  21.1200   3.2200  37.2000 C     1   CH4   0.0000
1634     C  23.0700  14.1900  43.5900 C     1   CH4   0.0000
1635     C  12.6400  12.1400  47.3000 C     1   CH4   0.0000
1636     C   0.5900  11.3000  57.9900 C     1   CH4   0.0000
1637     C  11.5500  21.2500  61.0400 C     1   CH4   0.0000
1638     C   5.5200   8.7100  61.7900 C     1   CH4   0.0000
1639     C  16.0100  22.4300  72.7200 C     1   CH4   0.0000
1640     C   6.7400   5.1400  46.4700 C     1   CH4   0.0000
1641     C  23.2000  17.9000  52.8500 C     1   CH4   0.0000
1642     C  21.4100  22.5700  60.3200 C     1   CH4   0.0000
1643     C  14.0800   5.6800  37.5600 C     1   CH4   0.0000
1644     C   9.8100  18.0600  54.9200 C     1   CH4   0.0000
1645     C  21.7800   7.2000  35.7100 C     1   CH4   0.0000
1646     C  11.0200  14.0600  41.8500 C     1   CH4   0.0000
1647     C  13.4600  15.8100  49.6000 C     1   CH4   0.0000
1648     C   3.5000   2.5400  36.0200 C     1   CH4   0.0000
1649     C   5.5600  11.9200  40.3300 C     1   CH4   0.0000
1650     C   3.6100   8.4600  57.5300 C     1   CH4   0.0000
1651     C  20.1800  14.0900  67.5400 C     1   CH4   0.0000
1652     C  22.8300  10.5900  54.7100 C     1   CH4   0.0000
1653     C   2.9400  11.2700  55.1400 C     1   CH4   0.0000
1654     C   3.0800  18.8700  29.4300 C     1   CH4   0.0000
1655     C  10.6700  21.9700  53.1700 C     1   CH4   0.0000
1656     C  22.6600   1.4400  26.2700 C     1   CH4   0.0000
1657     C   4.2700   7.7200  53.0500 C     1   CH4   0.0000
1658     C   0.7800   5.2400  33.7800 C     1   CH4   0.0000
1659     C  19.0400   9.8000  32.3500 C     1   CH4   0.0000
1660     C  15.0200   4.9100  47.0200 C     1   CH4   0.0000
1661     C   2.5900   7.2200  46.7000 C     1   CH4   0.0000
1662     C  14.2000  14.7100  43.9600 C     1   CH4   0.0000
1663     C   9.0500  16.0500  35.6800 C     1   CH4   0.0000
1664     C  17.6900   5.9600  31.4000 C     1   CH4   0.0000
1665    OW   7.4600  21.0400  61.6500 O     1   SOL   0.0000
1666   HW1   7.1300  21.0200  62.5400 H     1   SOL   0.5897
1667   HW2   7.9400  20.2200  61.5500 H     1   SOL   0.5897
1668    MW   7.4800  20.9300  61.7500 M     1   SOL  -1.1794
1669    OW   5.7500   1.3100  44.8100 O     1   SOL   0.0000
1670   HW1   5.0400   1.8900  44.5600 H     1   SOL   0.5897
1671   HW2   5.8500   1.4400  45.7600 H     1   SOL   0.5897
1672    MW   5.6700   1.4100  44.9100 M     1   SOL  -1.1794
1673    OW   9.3100  23.2100  57.2400 O     1   SOL   0.0000
1674   HW1   9.2500  23.0100  58.1800 H     1   SOL   0.5897
1675   HW2  10.1900  22.9200  56.9900 H     1   SOL   0.5897
1676    MW   9.4200  23.1500  57.3300 M     1   SOL  -1.1794
1677    OW  18.5600  10.9400  51.3000 O     1   SOL   0.0000
1678   HW1  19.0800  11.2200  52.0500 H     1   SOL   0.5897
1679   HW2  18.8400  11.5100  50.5800 H     1   SOL   0.5897
1680    MW  18.6700  11.0500  51.3000 M     1   SOL  -1.1794
1681    OW  10.1600   1.2500  62.1400 O     1   SOL   0.0000
1682   HW1   9.9000   2.1300  61.8600 H     1   SOL   0.5897
1683   HW2   9.9400   1.2200  63.0700 H     1   SOL   0.5897
1684    MW  10.0900   1.3600  62.2300 M     1   SOL  -1.1794
1685    OW   3.9800  21.2700  46.4800 O     1   SOL   0.0000
1686   HW1   4.1300  21.7400  45.6600 H     1   SOL   0.5897
1687   HW2   4.6100  21.6500  47.0900 H     1   SOL   0.5897
1688    MW   4.0800  21.3900  46.4500 M     1   SOL  -1.1794
1689    OW   9.5300   8.9700  48.2900 O     1   SOL   0.0000
1690   HW1   9.0400   8.5100  48.9800 H     1   SOL   0.5897
1691   HW2   8.9400   8.9600  47.5300 H     1   SOL   0.5897
1692    MW   9.3800   8.9000  48.2800 M     1   SOL  -1.1794
1693    OW   5.9000  15.1200  33.2400 O     1   SOL   0.0000
1694   HW1   5.3700  15.3700  32.4800 H     1   SOL   0.5897
1695   HW2   5.3700  14.4800  33.7100 H     1   SOL   0.5897
1696    MW   5.7600  15.0700  33.2000 M     1   SOL  -1.1794
1697    OW  18.5000  10.5600  27.3400 O     1   SOL   0.0000
1698   HW1  17.9700  11.1500  26.8200 H     1   SOL   0.5897
1699   HW2  19.3600  10.9600  27.3700 H     1   SOL   0.5897
1700    MW  18.5400  10.6900  27.2700 M     1   SOL  -1.1794
1701    OW   9.7800  22.4100  41.6800 O     1   SOL   0.0000
1702   HW1   9.4400  21.6900  41.1400 H     1   SOL   0.5897
1703   HW2  10.1100  21.9800  42.4600 H     1   SOL   0.5897
1704    MW   9.7800  22.2500  41.7100 M     1   SOL  -1.1794
1705    OW   3.3300  19.4000  42.3000 O     1   SOL   0.0000
1706   HW1   2.7400  19.5800  43.0400 H     1   SOL   0.5897
1707   HW2   2.7400  19.3100  41.5500 H     1   SOL   0.5897
1708    MW   3.1700  19.4100  42.3000 M     1   SOL  -1.1794
1709    OW  13.6300  21.8200  24.0700 O     1   SOL   0.0000
1710   HW1  14.3100  22.2800  23.5700 H     1   SOL   0.5897
1711   HW2  14.0100  20.9600  24.2600 H     1   SOL   0.5897
1712    MW  13.7700  21.7700  24.0300 M     1   SOL  -1.1794
1713    OW  12.9200   3.6100  66.9200 O     1   SOL   0.0000
1714   HW1  13.1900   3.8400  66.0300 H     1   SOL   0.5897
1715   HW2  13.0300   4.4200  67.4200 H     1   SOL   0.5897
1716    MW  12.9700   3.7500  66.8600 M     1   SOL  -1.1794
1717    OW  15.6700  21.4200  37.3700 O     1   SOL   0.0000
1718   HW1  15.1700  20.6600  37.0500 H     1   SOL   0.5897
1719   HW2  16.2400  21.0600  38.0400 H     1   SOL   0.5897
1720    MW  15.6800  21.2700  37.4100 M     1   SOL  -1.1794
1721    OW  13.5200   0.8100  47.7900 O     1   SOL   0.0000
1722   HW1  12.8900   1.5300  47.7200 H     1   SOL   0.5897
1723   HW2  13.0200   0.1000  48.2100 H     1   SOL   0.5897
1724    MW  13.3600   0.8100  47.8400 M     1   SOL  -1.1794
1725    OW   7.0200  23.2400  40.4400 O     1   SOL   0.0000
1726   HW1   6.1400  23.4500  40.1200 H     1   SOL   0.5897
1727   HW2   7.5000  24.0700  40.3600 H     1   SOL   0.5897
1728    MW   6.9700  23.3800  40.3800 M     1   SOL  -1.1794
1729    OW  18.3100  18.9800  61.0400 O     1   SOL   0.0000
1730   HW1  18.1500  19.3200  60.1600 H     1   SOL   0.5897
1731   HW2  17.5200  18.4900  61.2600 H     1   SOL   0.5897
1732    MW  18.1800  18.9600  60.9500 M     1   SOL  -1.1794
1733    OW   3.8000  22.3800  50.4500 O     1   SOL   0.0000
1734   HW1   3.2500  21.6000  50.5100 H     1   SOL   0.5897
1735   HW2   3.1800  23.1100  50.3500 H     1   SOL   0.5897
1736    MW   3.6400  22.3800  50.4500 M     1   SOL  -1.1794
1737    OW  10.9200   7.8100  36.8000 O     1   SOL   0.0000
1738   HW1  10.9300   7.6800  37.7500 H     1   SOL   0.5897
1739   HW2  11.2300   8.7100  36.6800 H     1   SOL   0.5897
1740    MW  10.9600   7.9100  36.9100 M     1   SOL  -1.1794
1741    OW   9.1500   7.6100  68.3900 O     1   SOL   0.0000
1742   HW1   9.6900   7.2300  69.0800 H     1   SOL   0.5897
1743   HW2   8.4700   8.0900  68.8600 H     1   SOL   0.5897
1744    MW   9.1300   7.6300  68.5400 M     1   SOL  -1.1794
1745    OW  23.5600   3.4600  52.3500 O     1   SOL   0.0000
1746   HW1  24.4100   3.8500  52.1700 H     1   SOL   0.5897
1747   HW2  23.7600   2.6600  52.8300 H     1   SOL   0.5897
1748    MW  23.7000   3.4000  52.3900 M     1   SOL  -1.1794
1749    OW  18.4200  16.2400  70.2900 O     1   SOL   0.0000
1750   HW1  18.1800  15.3200  70.4100 H     1   SOL   0.5897
1751   HW2  19.3300  16.2900  70.5800 H     1   SOL   0.5897
1752    MW  18.5100  16.1200  70.3400 M     1   SOL  -1.1794
1753    OW  16.8500  12.5500  47.2300 O     1   SOL   0.0000
1754   HW1  16.7100  11.6800  47.5900 H     1   SOL   0.5897
1755   HW2  16.7800  13.1400  47.9800 H     1   SOL   0.5897
1756    MW  16.8200  12.5100  47.3800 M     1   SOL  -1.1794
1757    OW  14.2700  22.6800  58.2200 O     1   SOL   0.0000
1758   HW1  14.7900  23.3200  57.7300 H     1   SOL   0.5897
1759   HW2  14.4500  22.8800  59.1400 H     1   SOL   0.5897
1760    MW  14.3700  22.8000  58.2800 M     1   SOL  -1.1794
1761    OW   3.9600  16.0800  51.7400 O     1   SOL   0.0000
1762   HW1   3.7900  15.7800  52.6300 H     1   SOL   0.5897
1763   HW2   3.1100  16.0700  51.3100 H     1   SOL   0.5897
1764    MW   3.8200  16.0400  51.8000 M     1   SOL  -1.1794
1765    OW  15.3000  18.5400  31.6100 O     1   SOL   0.0000
1766   HW1  15.5900  17.6900  31.2700 H     1   SOL   0.5897
1767   HW2  16.0900  18.9500  31.9400 H     1   SOL   0.5897
1768    MW  15.4400  18.4800  31.6100 M     1   SOL  -1.1794
1769    OW   5.3300  14.5700  65.3000 O     1   SOL   0.0000
1770   HW1   5.0100  15.4000  65.6700 H     1   SOL   0.5897
1771   HW2   6.2700  14.5800  65.4800 H     1   SOL   0.5897
1772    MW   5.4100  14.6900  65.3800 M     1   SOL  -1.1794
1773    OW  20.3400   6.0200  38.6700 O     1   SOL   0.0000
1774   HW1  20.5200   6.9300  38.4400 H     1   SOL   0.5897
1775   HW2  21.1700   5.5600  38.5200 H     1   SOL   0.5897
1776    MW  20.4800   6.0800  38.6100 M     1   SOL  -1.1794
1777    OW  16.9400   5.1000  62.3200 O     1   SOL   0.0000
1778   HW1  16.7100   4.1800  62.1900 H     1   SOL   0.5897
1779   HW2  17.7900   5.1900  61.8800 H     1   SOL   0.5897
1780    MW  17.0300   4.9900  62.2400 M     1   SOL  -1.1794
1781    OW  21.6000   5.8500  69.9300 O     1   SOL   0.0000
1782   HW1  21.7500   4.9200  70.1000 H     1   SOL   0.5897
1783   HW2  21.5300   5.9100  68.9800 H     1   SOL   0.5897
1784    MW  21.6100   5.7300  69.8200 M     1   SOL  -1.1794
1785    OW  21.8900  21.7200  53.0300 O     1   SOL   0.0000
1786   HW1  22.8200  21.7000  52.7900 H     1   SOL   0.5897
1787   HW2  21.4500  21.3600  52.2600 H     1   SOL   0.5897
1788    MW  21.9600  21.6700  52.8900 M     1   SOL  -1.1794
1789    OW  11.6300  20.0200  67.7000 O     1   SOL   0.0000
1790   HW1  12.4100  20.2500  68.2000 H     1   SOL   0.5897
1791   HW2  11.9400  19.3700  67.0600 H     1   SOL   0.5897
1792    MW  11.7800  19.9600  67.6800 M     1   SOL  -1.1794
1793    OW  21.5800   0.9800  51.2600 O     1   SOL   0.0000
1794   HW1  21.1500   1.8100  51.4400 H     1   SOL   0.5897
1795   HW2  20.9100   0.4500  50.8200 H     1   SOL   0.5897
1796    MW  21.4300   1.0200  51.2300 M     1   SOL  -1.1794
1797    OW  12.6700   8.9400  44.9700 O     1   SOL   0.0000
1798   HW1  12.6900   8.3900  44.1900 H     1   SOL   0.5897
1799   HW2  12.2700   9.7600  44.6800 H     1   SOL   0.5897
1800    MW  12.6200   8.9700  44.8300 M     1   SOL  -1.1794
1801    OW   9.4200   4.2600  25.3700 O     1   SOL   0.0000
1802   HW1   9.2800   5.2100  25.3000 H     1   SOL   0.5897
1803   HW2   9.8800   4.0200  24.5700 H     1   SOL   0.5897
1804    MW   9.4600   4.3500  25.2600 M     1   SOL  -1.1794
1805    OW   1.4000  19.7000  44.2600 O     1   SOL   0.0000
1806   HW1   0.5700  19.9800  44.6400 H     1   SOL   0.5897
1807   HW2   1.8300  19.2000  44.9500 H     1   SOL   0.5897
1808    MW   1.3400  19.6700  44.4000 M     1   SOL  -1.1794
1809    OW  14.7400  14.5700  63.7100 O     1   SOL   0.0000
1810   HW1  15.0300  15.4400  63.9600 H     1   SOL   0.5897
1811   HW2  15.3700  14.2800  63.0500 H     1   SOL   0.5897
1812    MW  14.8600  14.6500  63.6500 M     1   SOL  -1.1794
1813    OW   4.5800   8.7700  31.6300 O     1   SOL   0.0000
1814   HW1   3.9400   9.4800  31.7000 H     1   SOL   0.5897
1815   HW2   5.0400   8.7900  32.4700 H     1   SOL   0.5897
1816    MW   4.5500   8.8700  31.7600 M     1   SOL  -1.1794
1817    OW  21.5800   6.1200  67.3100 O     1   SOL   0.0000
1818   HW1  22.2300   6.5200  66.7400 H     1   SOL   0.5897
1819   HW2  20.8200   6.7000  67.2500 H     1   SOL   0.5897
1820    MW  21.5600   6.2500  67.2200 M     1   SOL  -1.1794
1821    OW  19.9200  16.2900  48.3300 O     1   SOL   0.0000
1822   HW1  19.4400  17.0900  48.1200 H     1   SOL   0.5897
1823   HW2  20.3100  16.4500  49.1900 H     1   SOL   0.5897
1824    MW  19.9100  16.4200  48.4200 M     1   SOL  -1.1794
1825    OW  10.8700  16.5300  68.7500 O     1   SOL   0.0000
1826   HW1   9.9200  16.4600  68.7400 H     1   SOL   0.5897
1827   HW2  11.0400  17.4700  68.7800 H     1   SOL   0.5897
1828    MW  10.7700  16.6500  68.7600 M     1   SOL  -1.1794
1829    OW  16.4800  12.1600  34.1500 O     1   SOL   0.0000
1830   HW1  15.9600  11.4300  33.8000 H     1   SOL   0.5897
1831   HW2  16.9000  11.8000  34.9300 H     1   SOL   0.5897
1832    MW  16.4700  12.0100  34.2100 M     1   SOL  -1.1794
1833    OW  21.0800   7.1500  59.7900 O     1   SOL   0.0000
1834   HW1  21.3600   6.5300  59.1200 H     1   SOL   0.5897
1835   HW2  21.9000   7.5200  60.1200 H     1   SOL   0.5897
1836    MW  21.2300   7.1200  59.7400 M     1   SOL  -1.1794
1837    OW   5.6600  10.6100  46.3700 O     1   SOL   0.0000
1838   HW1   6.4800  10.1400  46.1900 H     1   SOL   0.5897
1839   HW2   5.7800  10.9800  47.2500 H     1   SOL   0.5897
1840    MW   5.7900  10.6000  46.4600 M     1   SOL  -1.1794
1841    OW   5.0800  18.6600  54.9900 O     1   SOL   0.0000
1842   HW1   5.7400  19.2200  55.4000 H     1   SOL   0.5897
1843   HW2   5.5900  17.9600  54.5800 H     1   SOL   0.5897
1844    MW   5.2400  18.6400  54.9900 M     1   SOL  -1.1794
1845    OW   0.0400   1.2000  41.2600 O     1   SOL   0.0000
1846   HW1   0.6600   1.5900  41.8800 H     1   SOL   0.5897
1847   HW2  -0.1900   0.3600  41.6500 H     1   SOL   0.5897
1848    MW   0.0900   1.1400  41.3900 M     1   SOL  -1.1794
1849    OW  11.5600  22.7800  48.3600 O     1   SOL   0.0000
1850   HW1  11.1100  22.7500  47.5200 H     1   SOL   0.5897
1851   HW2  10.9200  23.1600  48.9600 H     1   SOL   0.5897
1852    MW  11.4200  22.8300  48.3300 M     1   SOL  -1.1794
1853    OW  12.7000  11.0300  28.7200 O     1   SOL   0.0000
1854   HW1  12.4000  11.9000  28.4700 H     1   SOL   0.5897
1855   HW2  11.9800  10.4500  28.4900 H     1   SOL   0.5897
1856    MW  12.5600  11.0700  28.6600 M     1   SOL  -1.1794
1857    OW   3.8000   3.2800  44.5400 O     1   SOL   0.0000
1858   HW1   3.2500   2.8300  43.8900 H     1   SOL   0.5897
1859   HW2   3.9700   4.1400  44.1500 H     1   SOL   0.5897
1860    MW   3.7500   3.3300  44.4000 M     1   SOL  -1.1794
1861    OW   7.8500   2.5500  28.1200 O     1   SOL   0.0000
1862   HW1   8.6600   2.0800  28.3200 H     1   SOL   0.5897
1863   HW2   8.0400   3.4700  28.3100 H     1   SOL   0.5897
1864    MW   7.9800   2.6100  28.1700 M     1   SOL  -1.1794
1865    OW  18.4400   8.4800  42.5800 O     1   SOL   0.0000
1866   HW1  18.8100   7.7400  42.0900 H     1   SOL   0.5897
1867   HW2  17.9500   8.9700  41.9300 H     1   SOL   0.5897
1868    MW  18.4300   8.4500  42.4300 M     1   SOL  -1.1794
1869    OW  16.9000  15.5400  66.5400 O     1   SOL   0.0000
1870   HW1  17.5300  16.1200  66.9700 H     1   SOL   0.5897
1871   HW2  17.4000  15.1400  65.8200 H     1   SOL   0.5897
1872    MW  17.0500  15.5700  66.5000 M     1   SOL  -1.1794
1873    OW  13.8400  15.8200  56.5400 O     1   SOL   0.0000
1874   HW1  14.2800  16.6600  56.4200 H     1   SOL   0.5897
1875   HW2  12.9500  16.0600  56.7900 H     1   SOL   0.5897
1876    MW  13.7800  15.9700  56.5600 M     1   SOL  -1.1794
1877    OW  10.3300   3.7300  65.8000 O     1   SOL   0.0000
1878   HW1  10.0700   2.8600  65.5100 H     1   SOL   0.5897
1879   HW2  11.0400   3.5800  66.4200 H     1   SOL   0.5897
1880    MW  10.3900   3.5900  65.8400 M     1   SOL  -1.1794
1881    OW   4.6700  12.8300  34.5900 O     1   SOL   0.0000
1882   HW1   4.7700  13.0900  35.5000 H     1   SOL   0.5897
1883   HW2   3.7400  12.6500  34.4800 H     1   SOL   0.5897
1884    MW   4.5600  12.8400  34.6900 M     1   SOL  -1.1794
1885    OW  23.6800  22.8900  45.2000 O     1   SOL   0.0000
1886   HW1  22.8900  22.3700  45.3300 H     1   SOL   0.5897
1887   HW2  23.8400  22.8600  44.2600 H     1   SOL   0.5897
1888    MW  23.6000  22.8200  45.0900 M     1   SOL  -1.1794
1889    OW  21.2800   0.5700  63.6000 O     1   SOL   0.0000
1890   HW1  21.2300   0.7600  64.5400 H     1   SOL   0.5897
1891   HW2  22.2100   0.6500  63.3900 H     1   SOL   0.5897
1892    MW  21.4000   0.6100  63.7000 M     1   SOL  -1.1794
1893    OW  19.8100   5.7800  28.2300 O     1   SOL   0.0000
1894   HW1  19.0600   6.3300  27.9800 H     1   SOL   0.5897
1895   HW2  20.5800   6.3100  28.0100 H     1   SOL   0.5897
1896    MW  19.8100   5.9200  28.1700 M     1   SOL  -1.1794
1897    OW  19.4500  17.8400  33.5800 O     1   SOL   0.0000
1898   HW1  20.1300  18.4100  33.9300 H     1   SOL   0.5897
1899   HW2  19.9100  17.2700  32.9600 H     1   SOL   0.5897
1900    MW  19.6000  17.8400  33.5400 M     1   SOL  -1.1794
1901    OW   8.6500   9.3000  40.0700 O     1   SOL   0.0000
1902   HW1   8.7200  10.0900  39.5400 H     1   SOL   0.5897
1903   HW2   9.4400   8.7900  39.8600 H     1   SOL   0.5897
1904    MW   8.7600   9.3400  39.9700 M     1   SOL  -1.1794
1905    OW   7.2000   6.8000  26.6200 O     1   SOL   0.0000
1906   HW1   7.3000   6.3200  27.4400 H     1   SOL   0.5897
1907   HW2   8.0900   6.8500  26.2600 H     1   SOL   0.5897
1908    MW   7.3300   6.7400  26.6800 M     1   SOL  -1.1794
1909    OW  19.6600   5.3400  61.6000 O     1   SOL   0.0000
1910   HW1  20.1700   5.9300  61.0400 H     1   SOL   0.5897
1911   HW2  19.9300   4.4600  61.3400 H     1   SOL   0.5897
1912    MW  19.7700   5.3000  61.4900 M     1   SOL  -1.1794
1913    OW  18.7800   4.6800  48.6700 O     1   SOL   0.0000
1914   HW1  19.1900   3.8400  48.4700 H     1   SOL   0.5897
1915   HW2  18.4700   5.0000  47.8200 H     1   SOL   0.5897
1916    MW  18.7900   4.6100  48.5300 M     1   SOL  -1.1794
1917    OW   8.4700   9.9600  26.6300 O     1   SOL   0.0000
1918   HW1   8.0600   9.7100  25.8000 H     1   SOL   0.5897
1919   HW2   8.4700  10.9200  26.6200 H     1   SOL   0.5897
1920    MW   8.4100  10.0500  26.5200 M     1   SOL  -1.1794
1921    OW  14.8300  16.4000  68.9500 O     1   SOL   0.0000
1922   HW1  15.6700  15.9500  68.9100 H     1   SOL   0.5897
1923   HW2  14.5900  16.3700  69.8800 H     1   SOL   0.5897
1924    MW  14.9100  16.3400  69.0700 M     1   SOL  -1.1794
1925    OW  20.5100  11.7000   0.1400 O     1   SOL   0.0000
1926   HW1  21.0500  11.9600  -0.6000 H     1   SOL   0.5897
1927   HW2  20.9700  12.0500   0.9100 H     1   SOL   0.5897
1928    MW  20.6500  11.7800   0.1400 M     1   SOL  -1.1794
1929    OW   6.6900  18.6900  73.4900 O     1   SOL   0.0000
1930   HW1   6.6300  18.1200  72.7300 H     1   SOL   0.5897
1931   HW2   5.9000  18.4900  74.0000 H     1   SOL   0.5897
1932    MW   6.5700  18.5900  73.4600 M     1   SOL  -1.1794
1933    OW  23.3800  20.3800  41.1800 O     1   SOL   0.0000
1934   HW1  23.2200  19.7100  41.8400 H     1   SOL   0.5897
1935   HW2  24.1500  20.0800  40.7100 H     1   SOL   0.5897
1936    MW  23.4600  20.2500  41.2100 M     1   SOL  -1.1794
1937    OW  15.2600   2.4900  44.1300 O     1   SOL   0.0000
1938   HW1  16.1400   2.2500  43.8500 H     1   SOL   0.5897
1939   HW2  15.2200   3.4400  44.0200 H     1   SOL   0.5897
1940    MW  15.3700   2.5800  44.0700 M     1   SOL  -1.1794
1941    OW   6.5700  15.1300  51.2400 O     1   SOL   0.0000
1942   HW1   6.9100  15.5100  50.4300 H     1   SOL   0.5897
1943   HW2   5.6700  15.4800  51.3100 H     1   SOL   0.5897
1944    MW   6.4900  15.2300  51.1400 M     1   SOL  -1.1794
1945    OW  14.8000  14.4200  33.2700 O     1   SOL   0.0000
1946   HW1  14.9100  15.1300  33.9000 H     1   SOL   0.5897
1947   HW2  15.3900  13.7300  33.5800 H     1   SOL   0.5897
1948    MW  14.9000  14.4200  33.4000 M     1   SOL  -1.1794
1949    OW  21.1200  23.7600  72.1300 O     1   SOL   0.0000
1950   HW1  21.8500  23.2500  72.4900 H     1   SOL   0.5897
1951   HW2  20.5500  23.1100  71.7100 H     1   SOL   0.5897
1952    MW  21.1400  23.6100  72.1300 M     1   SOL  -1.1794
1953    OW  10.4100  13.8100  62.2100 O     1   SOL   0.0000
1954   HW1  10.6600  13.0700  62.7600 H     1   SOL   0.5897
1955   HW2  11.2300  14.2700  62.0400 H     1   SOL   0.5897
1956    MW  10.5500  13.7700  62.2600 M     1   SOL  -1.1794
1957    OW  22.1100  18.8200  47.0500 O     1   SOL   0.0000
1958   HW1  21.2000  18.7400  47.3300 H     1   SOL   0.5897
1959   HW2  22.3100  17.9700  46.6400 H     1   SOL   0.5897
1960    MW  22.0200  18.6900  47.0300 M     1   SOL  -1.1794
1961    OW  21.5700  12.5600  62.3700 O     1   SOL   0.0000
1962   HW1  20.8900  11.9200  62.6000 H     1   SOL   0.5897
1963   HW2  22.3600  12.2400  62.8100 H     1   SOL   0.5897
1964    MW  21.5900  12.4300  62.4600 M     1   SOL  -1.1794
1965    OW  14.9000   6.1600  50.8100 O     1   SOL   0.0000
1966   HW1  14.2600   5.5100  50.5400 H     1   SOL   0.5897
1967   HW2  14.6200   6.9700  50.3800 H     1   SOL   0.5897
1968    MW  14.7800   6.1800  50.7200 M     1   SOL  -1.1794
1969    OW  21.8900  10.7400  60.2500 O     1   SOL   0.0000
1970   HW1  21.0200  10.4900  59.9400 H     1   SOL   0.5897
1971   HW2  21.7200  11.4000  60.9300 H     1   SOL   0.5897
1972    MW  21.7500  10.8000  60.3000 M     1   SOL  -1.1794
1973    OW   6.8400   5.3400  39.6000 O     1   SOL   0.0000
1974   HW1   7.2600   5.5200  40.4400 H     1   SOL   0.5897
1975   HW2   7.4800   4.8000  39.1300 H     1   SOL   0.5897
1976    MW   6.9800   5.2900  39.6500 M     1   SOL  -1.1794
1977    OW  23.8300   9.9800  37.6300 O     1   SOL   0.0000
1978   HW1  24.1700   9.9500  36.7300 H     1   SOL   0.5897
1979   HW2  24.6000  10.0700  38.1800 H     1   SOL   0.5897
1980    MW  23.9800   9.9900  37.5800 M     1   SOL  -1.1794
1981    OW   1.7200   7.7800  61.8600 O     1   SOL   0.0000
1982   HW1   0.8000   7.9100  61.6300 H     1   SOL   0.5897
1983   HW2   1.7600   6.8700  62.1800 H     1   SOL   0.5897
1984    MW   1.6000   7.6700  61.8700 M     1   SOL  -1.1794
1985    OW  12.6600  11.6600  54.7000 O     1   SOL   0.0000
1986   HW1  12.5900  11.5800  53.7500 H     1   SOL   0.5897
1987   HW2  12.8000  10.7700  55.0100 H     1   SOL   0.5897
1988    MW  12.6700  11.5300  54.6200 M     1   SOL  -1.1794
1989    OW  10.8300   5.0400  63.4200 O     1   SOL   0.0000
1990   HW1  10.4200   5.9100  63.3600 H     1   SOL   0.5897
1991   HW2  10.5800   4.7300  64.2900 H     1   SOL   0.5897
1992    MW  10.7400   5.1200  63.5300 M     1   SOL  -1.1794
1993    OW  17.7500  19.6700  32.2700 O     1   SOL   0.0000
1994   HW1  17.4500  20.1900  33.0100 H     1   SOL   0.5897
1995   HW2  18.4700  19.1500  32.6200 H     1   SOL   0.5897
1996    MW  17.8100  19.6700  32.4200 M     1   SOL  -1.1794
1997    OW   0.6600   9.2100  41.5300 O     1   SOL   0.0000
1998   HW1   0.4100   9.8200  42.2300 H     1   SOL   0.5897
1999   HW2   1.5700   9.0000  41.7200 H     1   SOL   0.5897
2000    MW   0.7500   9.2700  41.6500 M     1   SOL  -1.1794
2001    OW  16.3700  15.1800  51.9400 O     1   SOL   0.0000
2002   HW1  15.9100  14.6800  52.6100 H     1   SOL   0.5897
2003   HW2  17.1300  15.5400  52.3900 H     1   SOL   0.5897
2004    MW  16.4100  15.1600  52.0900 M     1   SOL  -1.1794
2005    OW  19.4100   2.4900  68.8400 O     1   SOL   0.0000
2006   HW1  19.1000   3.1600  69.4500 H     1   SOL   0.5897
2007   HW2  19.0000   1.6800  69.1500 H     1   SOL   0.5897
2008    MW  19.3200   2.4700  68.9600 M     1   SOL  -1.1794
2009    OW   2.0000  21.6000  55.0500 O     1   SOL   0.0000
2010   HW1   2.9600  21.5500  55.0300 H     1   SOL   0.5897
2011   HW2   1.7900  21.7400  55.9800 H     1   SOL   0.5897
2012    MW   2.1000  21.6100  55.1800 M     1   SOL  -1.1794
2013    OW  23.2100  15.0000  25.9000 O     1   SOL   0.0000
2014   HW1  23.1400  14.8900  24.9500 H     1   SOL   0.5897
2015   HW2  24.0900  15.3600  26.0400 H     1   SOL   0.5897
2016    MW  23.3200  15.0300  25.7900 M     1   SOL  -1.1794
2017    OW   8.1900   9.7300  45.8900 O     1   SOL   0.0000
2018   HW1   8.1900   9.3000  45.0400 H     1   SOL   0.5897
2019   HW2   8.7200  10.5200  45.7600 H     1   SOL   0.5897
2020    MW   8.2600   9.7800  45.7600 M     1   SOL  -1.1794
2021    OW   7.8000   8.2800  43.5900 O     1   SOL   0.0000
2022   HW1   8.0700   9.0800  43.1300 H     1   SOL   0.5897
2023   HW2   8.2500   7.5800  43.1200 H     1   SOL   0.5897
2024    MW   7.8900   8.3000  43.4600 M     1   SOL  -1.1794
2025    OW  15.4800  18.0900  56.4600 O     1   SOL   0.0000
2026   HW1  15.9900  18.4400  55.7300 H     1   SOL   0.5897
2027   HW2  15.4900  18.7800  57.1200 H     1   SOL   0.5897
2028    MW  15.5500  18.2300  56.4500 M     1   SOL  -1.1794
2029    OW  16.0900  17.3500  61.5000 O     1   SOL   0.0000
2030   HW1  15.2600  17.7500  61.2400 H     1   SOL   0.5897
2031   HW2  16.0700  17.3700  62.4600 H     1   SOL   0.5897
2032    MW  15.9800  17.4100  61.5900 M     1   SOL  -1.1794
2033    OW   7.6700  22.1100  55.0300 O     1   SOL   0.0000
2034   HW1   7.8900  22.5400  54.2000 H     1   SOL   0.5897
2035   HW2   8.2300  22.5400  55.6700 H     1   SOL   0.5897
2036    MW   7.7700  22.2300  55.0000 M     1   SOL  -1.1794
2037    OW   6.3300  19.7900  25.2800 O     1   SOL   0.0000
2038   HW1   6.6500  20.5400  24.7800 H     1   SOL   0.5897
2039   HW2   5.3900  19.9000  25.3100 H     1   SOL   0.5897
2040    MW   6.2500  19.9000  25.2200 M     1   SOL  -1.1794
2041    OW   5.8000  14.3000  57.2800 O     1   SOL   0.0000
2042   HW1   5.9100  14.7300  58.1300 H     1   SOL   0.5897
2043   HW2   4.9600  14.6100  56.9600 H     1   SOL   0.5897
2044    MW   5.7000  14.4000  57.3500 M     1   SOL  -1.1794
2045    OW  17.7900   0.5700  69.8900 O     1   SOL   0.0000
2046   HW1  18.2200  -0.2100  70.2500 H     1   SOL   0.5897
2047   HW2  17.8500   1.2100  70.6000 H     1   SOL   0.5897
2048    MW  17.8600   0.5500  70.0400 M     1   SOL  -1.1794
2049    OW   2.0400  14.7300  63.1400 O     1   SOL   0.0000
2050   HW1   1.6600  15.4600  63.6400 H     1   SOL   0.5897
2051   HW2   2.2400  14.0700  63.8100 H     1   SOL   0.5897
2052    MW   2.0100  14.7400  63.3000 M     1   SOL  -1.1794
2053    OW  13.8100  14.8400  59.1000 O     1   SOL   0.0000
2054   HW1  13.8700  15.2500  58.2300 H     1   SOL   0.5897
2055   HW2  14.6800  14.9300  59.4700 H     1   SOL   0.5897
2056    MW  13.9300  14.9100  59.0300 M     1   SOL  -1.1794
2057    OW  10.5200   2.6600  43.0000 O     1   SOL   0.0000
2058   HW1  11.0700   1.9900  43.3900 H     1   SOL   0.5897
2059   HW2   9.6800   2.5900  43.4500 H     1   SOL   0.5897
2060    MW  10.4800   2.5600  43.1100 M     1   SOL  -1.1794
2061    OW  16.5200  19.6500  39.5300 O     1   SOL   0.0000
2062   HW1  16.1600  18.7600  39.5200 H     1   SOL   0.5897
2063   HW2  17.3000  19.5900  40.0800 H     1   SOL   0.5897
2064    MW  16.5700  19.5200  39.6000 M     1   SOL  -1.1794
2065    OW   0.6400   2.7500  38.9300 O     1   SOL   0.0000
2066   HW1   0.0000   3.4500  39.0900 H     1   SOL   0.5897
2067   HW2   0.4400   2.0900  39.5900 H     1   SOL   0.5897
2068    MW   0.5300   2.7500  39.0400 M     1   SOL  -1.1794
2069    OW  20.5800  23.4800  56.9300 O     1   SOL   0.0000
2070   HW1  20.5400  23.4700  55.9800 H     1   SOL   0.5897
2071   HW2  21.5200  23.5100  57.1400 H     1   SOL   0.5897
2072    MW  20.7000  23.4800  56.8300 M     1   SOL  -1.1794
2073    OW  23.4400  11.4700  63.8500 O     1   SOL   0.0000
2074   HW1  24.0700  11.3400  63.1400 H     1   SOL   0.5897
2075   HW2  22.9800  10.6400  63.9200 H     1   SOL   0.5897
2076    MW  23.4600  11.3400  63.7600 M     1   SOL  -1.1794
2077    OW  15.3000  20.3800  27.6800 O     1   SOL   0.0000
2078   HW1  15.9900  20.5900  28.3100 H     1   SOL   0.5897
2079   HW2  15.0200  21.2300  27.3500 H     1   SOL   0.5897
2080    MW  15.3500  20.5200  27.7200 M     1   SOL  -1.1794
2081    OW  19.6600  16.4600  40.8600 O     1   SOL   0.0000
2082   HW1  19.3500  17.3700  40.9000 H     1   SOL   0.5897
2083   HW2  18.8600  15.9400  40.8700 H     1   SOL   0.5897
2084    MW  19.5100  16.5100  40.8700 M     1   SOL  -1.1794
2085    OW  23.7500  21.5800  62.5800 O     1   SOL   0.0000
2086   HW1  23.4900  20.7500  62.9800 H     1   SOL   0.5897
2087   HW2  24.0700  21.3400  61.7100 H     1   SOL   0.5897
2088    MW  23.7600  21.4300  62.5200 M     1   SOL  -1.1794
2089    OW  10.7900   5.8600  34.6300 O     1   SOL   0.0000
2090   HW1  10.9700   6.4700  35.3500 H     1   SOL   0.5897
2091   HW2  11.5300   5.2600  34.6300 H     1   SOL   0.5897
2092    MW  10.9100   5.8600  34.7300 M     1   SOL  -1.1794
2093    OW  19.3300  14.8000  27.3200 O     1   SOL   0.0000
2094   HW1  19.1400  15.1000  28.2100 H     1   SOL   0.5897
2095   HW2  18.5100  14.4100  27.0200 H     1   SOL   0.5897
2096    MW  19.1900  14.7900  27.4000 M     1   SOL  -1.1794
2097    OW  11.5200   2.4400  46.9400 O     1   SOL   0.0000
2098   HW1  10.5900   2.3300  47.1300 H     1   SOL   0.5897
2099   HW2  11.6900   3.3700  47.1000 H     1   SOL   0.5897
2100    MW  11.4200   2.5500  46.9900 M     1   SOL  -1.1794
2101    OW  22.2400  20.1400  71.0300 O     1   SOL   0.0000
2102   HW1  21.6600  20.4300  70.3200 H     1   SOL   0.5897
2103   HW2  23.1200  20.2200  70.6700 H     1   SOL   0.5897
2104    MW  22.2800  20.1900  70.8800 M     1   SOL  -1.1794
2105    OW   6.0300  15.7700  72.1700 O     1   SOL   0.0000
2106   HW1   5.7300  15.5000  71.3000 H     1   SOL   0.5897
2107   HW2   6.1200  14.9500  72.6600 H     1   SOL   0.5897
2108    MW   6.0000  15.6300  72.1200 M     1   SOL  -1.1794
2109    OW  18.4600  14.8000  30.9800 O     1   SOL   0.0000
2110   HW1  17.6500  15.3200  31.0600 H     1   SOL   0.5897
2111   HW2  18.5400  14.3600  31.8200 H     1   SOL   0.5897
2112    MW  18.3600  14.8100  31.1000 M     1   SOL  -1.1794
2113    OW   6.7800  16.6800  53.7700 O     1   SOL   0.0000
2114   HW1   7.5300  16.3200  54.2400 H     1   SOL   0.5897
2115   HW2   6.8000  16.2400  52.9200 H     1   SOL   0.5897
2116    MW   6.8800  16.5700  53.7200 M     1   SOL  -1.1794
2117    OW   6.4900   8.8700  34.0800 O     1   SOL   0.0000
2118   HW1   6.9700   8.7000  34.8900 H     1   SOL   0.5897
2119   HW2   6.7600   9.7500  33.8300 H     1   SOL   0.5897
2120    MW   6.5900   8.9700  34.1600 M     1   SOL  -1.1794
2121    OW   5.0400   8.3300  44.4100 O     1   SOL   0.0000
2122   HW1   5.9400   8.2400  44.1100 H     1   SOL   0.5897
2123   HW2   5.1100   8.5600  45.3400 H     1   SOL   0.5897
2124    MW   5.1700   8.3500  44.5000 M     1   SOL  -1.1794
2125    OW   4.5700   2.5000  64.4700 O     1   SOL   0.0000
2126   HW1   5.4600   2.6500  64.1300 H     1   SOL   0.5897
2127   HW2   4.5200   3.0600  65.2500 H     1   SOL   0.5897
2128    MW   4.6900   2.6000  64.5300 M     1   SOL  -1.1794
2129    OW   1.2000  11.3100  68.3900 O     1   SOL   0.0000
2130   HW1   0.4700  10.7700  68.6700 H     1   SOL   0.5897
2131   HW2   0.8700  11.7900  67.6300 H     1   SOL   0.5897
2132    MW   1.0600  11.3000  68.3200 M     1   SOL  -1.1794
2133    OW  17.5200  11.2500  55.5200 O     1   SOL   0.0000
2134   HW1  18.3700  11.1100  55.9300 H     1   SOL   0.5897
2135   HW2  17.5900  10.8100  54.6700 H     1   SOL   0.5897
2136    MW  17.6400  11.1700  55.4600 M     1   SOL  -1.1794
2137    OW  14.4600  10.4000  33.4500 O     1   SOL   0.0000
2138   HW1  14.8500   9.5300  33.5500 H     1   SOL   0.5897
2139   HW2  13.5500  10.2900  33.7200 H     1   SOL   0.5897
2140    MW  14.3900  10.2700  33.5000 M     1   SOL  -1.1794
2141    OW  18.0200  13.3500  70.5900 O     1   SOL   0.0000
2142   HW1  17.4700  12.7800  70.0600 H     1   SOL   0.5897
2143   HW2  17.8500  13.0800  71.4900 H     1   SOL   0.5897
2144    MW  17.9300  13.2400  70.6400 M     1   SOL  -1.1794
2145    OW   9.2000   7.3400  62.7100 O     1   SOL   0.0000
2146   HW1   9.7200   8.0300  63.1500 H     1   SOL   0.5897
2147   HW2   9.1300   7.6400  61.8000 H     1   SOL   0.5897
2148    MW   9.2600   7.4800  62.6500 M     1   SOL  -1.1794
2149    OW  14.0800  18.7600  60.6300 O     1   SOL   0.0000
2150   HW1  14.2600  19.3700  61.3400 H     1   SOL   0.5897
2151   HW2  13.1200  18.6600  60.6400 H     1   SOL   0.5897
2152    MW  13.9700  18.8300  60.7300 M     1   SOL  -1.1794
2153    OW  15.2200  20.0500  58.5400 O     1   SOL   0.0000
2154   HW1  14.6400  19.6700  59.2000 H     1   SOL   0.5897
2155   HW2  14.9000  20.9400  58.4200 H     1   SOL   0.5897
2156    MW  15.1000  20.1200  58.6100 M     1   SOL  -1.1794
2157    OW  15.3700  16.0000  24.7700 O     1   SOL   0.0000
2158   HW1  16.0200  16.7000  24.7200 H     1   SOL   0.5897
2159   HW2  14.5400  16.4600  24.9400 H     1   SOL   0.5897
2160    MW  15.3500  16.1600  24.7800 M     1   SOL  -1.1794
2161    OW   7.3000  19.7500  56.5800 O     1   SOL   0.0000
2162   HW1   7.0300  20.2500  57.3500 H     1   SOL   0.5897
2163   HW2   7.3600  20.4100  55.8800 H     1   SOL   0.5897
2164    MW   7.2700  19.9100  56.5900 M     1   SOL  -1.1794
2165    OW   7.4900   9.3600  69.6500 O     1   SOL   0.0000
2166   HW1   7.4200  10.0800  69.0200 H     1   SOL   0.5897
2167   HW2   7.9500   9.7500  70.4000 H     1   SOL   0.5897
2168    MW   7.5400   9.5100  69.6700 M     1   SOL  -1.1794
2169    OW   3.9200  22.7900  63.2600 O     1   SOL   0.0000
2170   HW1   3.2500  22.1200  63.4000 H     1   SOL   0.5897
2171   HW2   3.8800  22.9800  62.3200 H     1   SOL   0.5897
2172    MW   3.8300  22.7300  63.1500 M     1   SOL  -1.1794
2173    OW   1.6200   1.0100  55.1700 O     1   SOL   0.0000
2174   HW1   2.5100   0.6500  55.1900 H     1   SOL   0.5897
2175   HW2   1.3600   0.9500  54.2600 H     1   SOL   0.5897
2176    MW   1.7100   0.9500  55.0500 M     1   SOL  -1.1794
2177    OW   4.1600   8.3500  40.0300 O     1   SOL   0.0000
2178   HW1   4.8600   8.3100  39.3800 H     1   SOL   0.5897
2179   HW2   3.9000   7.4400  40.1700 H     1   SOL   0.5897
2180    MW   4.2200   8.2200  39.9600 M     1   SOL  -1.1794
2181    OW  14.5100  15.8700  36.4000 O     1   SOL   0.0000
2182   HW1  13.6600  16.0800  36.8000 H     1   SOL   0.5897
2183   HW2  14.5200  16.3700  35.5900 H     1   SOL   0.5897
2184    MW  14.4000  15.9600  36.3500 M     1   SOL  -1.1794
2185    OW  11.9700   7.4000  30.8600 O     1   SOL   0.0000
2186   HW1  11.3900   7.7400  31.5400 H     1   SOL   0.5897
2187   HW2  12.6500   8.0700  30.7800 H     1   SOL   0.5897
2188    MW  11.9800   7.5400  30.9400 M     1   SOL  -1.1794
2189    OW  21.4200  12.4700  45.8000 O     1   SOL   0.0000
2190   HW1  20.7100  12.9300  46.2400 H     1   SOL   0.5897
2191   HW2  20.9900  11.9700  45.1000 H     1   SOL   0.5897
2192    MW  21.2700  12.4600  45.7600 M     1   SOL  -1.1794
2193    OW   9.9300   4.9200  72.7000 O     1   SOL   0.0000
2194   HW1   9.2300   4.2700  72.6800 H     1   SOL   0.5897
2195   HW2  10.7400   4.4000  72.7100 H     1   SOL   0.5897
2196    MW   9.9500   4.7600  72.7000 M     1   SOL  -1.1794
2197    OW   5.9700   5.4200  49.6800 O     1   SOL   0.0000
2198   HW1   6.2100   5.0900  50.5500 H     1   SOL   0.5897
2199   HW2   5.1400   5.8700  49.8200 H     1   SOL   0.5897
2200    MW   5.8900   5.4400  49.8200 M     1   SOL  -1.1794
2201    OW   3.3600  18.4700  57.1500 O     1   SOL   0.0000
2202   HW1   4.0600  18.6200  56.5200 H     1   SOL   0.5897
2203   HW2   2.5500  18.5900  56.6500 H     1   SOL   0.5897
2204    MW   3.3400  18.5100  57.0000 M     1   SOL  -1.1794
2205    OW   7.6200  10.7600  50.9400 O     1   SOL   0.0000
2206   HW1   7.3000   9.9300  51.2800 H     1   SOL   0.5897
2207   HW2   7.0700  11.4200  51.3600 H     1   SOL   0.5897
2208    MW   7.5100  10.7400  51.0400 M     1   SOL  -1.1794
2209    OW   6.7300   8.0600  38.7100 O     1   SOL   0.0000
2210   HW1   7.4200   8.4400  39.2600 H     1   SOL   0.5897
2211   HW2   6.8400   7.1200  38.8200 H     1   SOL   0.5897
2212    MW   6.8400   7.9900  38.8000 M     1   SOL  -1.1794
2213    OW  17.2500  14.5300  49.3900 O     1   SOL   0.0000
2214   HW1  18.0500  15.0600  49.4400 H     1   SOL   0.5897
2215   HW2  16.7200  14.8200  50.1300 H     1   SOL   0.5897
2216    MW  17.2900  14.6400  49.4900 M     1   SOL  -1.1794
2217    OW  17.6200  16.0800  34.5500 O     1   SOL   0.0000
2218   HW1  18.2500  16.7300  34.2400 H     1   SOL   0.5897
2219   HW2  17.9800  15.7900  35.3900 H     1   SOL   0.5897
2220    MW  17.7600  16.1300  34.6200 M     1   SOL  -1.1794
2221    OW  12.0300  14.8100  70.5600 O     1   SOL   0.0000
2222   HW1  11.6300  15.2700  69.8300 H     1   SOL   0.5897
2223   HW2  11.3200  14.6800  71.1900 H     1   SOL   0.5897
2224    MW  11.8800  14.8500  70.5500 M     1   SOL  -1.1794
2225    OW  10.3800  11.6000  60.5000 O     1   SOL   0.0000
2226   HW1  10.1300  12.3700  61.0100 H     1   SOL   0.5897
2227   HW2  10.9100  11.9400  59.7800 H     1   SOL   0.5897
2228    MW  10.4200  11.7500  60.4700 M     1   SOL  -1.1794
2229    OW   8.3500  15.1000  68.8200 O     1   SOL   0.0000
2230   HW1   8.8100  14.4100  69.2900 H     1   SOL   0.5897
2231   HW2   8.4500  14.8700  67.8900 H     1   SOL   0.5897
2232    MW   8.4300  14.9800  68.7600 M     1   SOL  -1.1794
2233    OW  16.6800  11.9500  44.6600 O     1   SOL   0.0000
2234   HW1  16.7800  12.4100  45.5000 H     1   SOL   0.5897
2235   HW2  16.1400  11.1900  44.8700 H     1   SOL   0.5897
2236    MW  16.6200  11.9100  44.8000 M     1   SOL  -1.1794
2237    OW   5.2700  23.3300  52.5400 O     1   SOL   0.0000
2238   HW1   4.9400  22.8700  53.3000 H     1   SOL   0.5897
2239   HW2   4.7500  22.9900  51.8100 H     1   SOL   0.5897
2240    MW   5.1500  23.2300  52.5400 M     1   SOL  -1.1794
2241    OW   3.2800  17.0900  25.1100 O     1   SOL   0.0000
2242   HW1   3.1100  17.9700  24.7800 H     1   SOL   0.5897
2243   HW2   3.1700  16.5200  24.3600 H     1   SOL   0.5897
2244    MW   3.2400  17.1300  24.9700 M     1   SOL  -1.1794
2245    OW  14.4400   8.8300  24.9200 O     1   SOL   0.0000
2246   HW1  14.8600   9.4000  24.2800 H     1   SOL   0.5897
2247   HW2  14.6000   9.2600  25.7600 H     1   SOL   0.5897
2248    MW  14.5200   8.9600  24.9500 M     1   SOL  -1.1794
2249    OW  10.1800  11.1200  49.7400 O     1   SOL   0.0000
2250   HW1   9.9600  10.3600  49.2000 H     1   SOL   0.5897
2251   HW2   9.4800  11.1500  50.3900 H     1   SOL   0.5897
2252    MW  10.0600  11.0200  49.7500 M     1   SOL  -1.1794
2253    OW  14.3400   1.6400  50.4100 O     1   SOL   0.0000
2254   HW1  13.6400   1.2600  50.9300 H     1   SOL   0.5897
2255   HW2  14.2100   1.3000  49.5300 H     1   SOL   0.5897
2256    MW  14.2300   1.5500  50.3600 M     1   SOL  -1.1794
2257    OW  22.6600  20.4200  49.3600 O     1   SOL   0.0000
2258   HW1  23.1100  21.2000  49.0200 H     1   SOL   0.5897
2259   HW2  22.5100  19.8800  48.5800 H     1   SOL   0.5897
2260    MW  22.7000  20.4500  49.2100 M     1   SOL  -1.1794
2261    OW   1.2900  21.4300  47.0800 O     1   SOL   0.0000
2262   HW1   0.8300  21.7300  46.2900 H     1   SOL   0.5897
2263   HW2   2.2200  21.5500  46.8800 H     1   SOL   0.5897
2264    MW   1.3500  21.4800  46.9500 M     1   SOL  -1.1794
2265    OW  13.8100   8.3500  54.3400 O     1   SOL   0.0000
2266   HW1  13.9000   8.7600  53.4700 H     1   SOL   0.5897
2267   HW2  13.9800   7.4200  54.1800 H     1   SOL   0.5897
2268    MW  13.8500   8.2800  54.2000 M     1   SOL  -1.1794
2269    OW   5.6600  21.9600  35.1300 O     1   SOL   0.0000
2270   HW1   5.0700  22.5400  35.6100 H     1   SOL   0.5897
2271   HW2   5.1300  21.6600  34.3800 H     1   SOL   0.5897
2272    MW   5.5100  21.9900  35.0900 M     1   SOL  -1.1794
2273    OW  17.0100  14.1000  55.7900 O     1   SOL   0.0000
2274   HW1  17.2300  13.1700  55.8100 H     1   SOL   0.5897
2275   HW2  16.1300  14.1300  55.4100 H     1   SOL   0.5897
2276    MW  16.9200  13.9800  55.7400 M     1   SOL  -1.1794
2277    OW  13.1600   6.9400  42.8600 O     1   SOL   0.0000
2278   HW1  13.2600   7.5700  42.1500 H     1   SOL   0.5897
2279   HW2  12.5000   6.3200  42.5400 H     1   SOL   0.5897
2280    MW  13.0800   6.9400  42.7200 M     1   SOL  -1.1794
2281    OW  19.1200  22.2300  70.9300 O     1   SOL   0.0000
2282   HW1  19.6100  22.1100  70.1200 H     1   SOL   0.5897
2283   HW2  18.4300  21.5700  70.8900 H     1   SOL   0.5897
2284    MW  19.0900  22.1300  70.8100 M     1   SOL  -1.1794
2285    OW  13.3800  19.7900  29.6200 O     1   SOL   0.0000
2286   HW1  13.8600  19.4500  30.3600 H     1   SOL   0.5897
2287   HW2  14.0500  20.0700  29.0000 H     1   SOL   0.5897
2288    MW  13.5300  19.7800  29.6300 M     1   SOL  -1.1794
2289    OW   0.1900  21.0800  57.4400 O     1   SOL   0.0000
2290   HW1  -0.6600  20.6700  57.2900 H     1   SOL   0.5897
2291   HW2   0.0200  22.0200  57.3600 H     1   SOL   0.5897
2292    MW   0.0500  21.1500  57.4100 M     1   SOL  -1.1794
2293    OW  21.7700  10.6800  67.9500 O     1   SOL   0.0000
2294   HW1  21.2200  11.0500  68.6400 H     1   SOL   0.5897
2295   HW2  22.4800  10.2400  68.4200 H     1   SOL   0.5897
2296    MW  21.7900  10.6700  68.1100 M     1   SOL  -1.1794
2297    OW  16.0100   0.5000  56.7800 O     1   SOL   0.0000
2298   HW1  15.9800   0.3700  55.8400 H     1   SOL   0.5897
2299   HW2  15.9300   1.4500  56.9000 H     1   SOL   0.5897
2300    MW  16.0000   0.6100  56.6700 M     1   SOL  -1.1794
2301    OW  15.7400  15.8400  31.0000 O     1   SOL   0.0000
2302   HW1  15.3500  15.3900  31.7500 H     1   SOL   0.5897
2303   HW2  15.0800  15.7600  30.3100 H     1   SOL   0.5897
2304    MW  15.6000  15.7700  31.0000 M     1   SOL  -1.1794
2305    OW   7.3000   2.3700  25.4500 O     1   SOL   0.0000
2306   HW1   8.0700   2.8400  25.1400 H     1   SOL   0.5897
2307   HW2   7.3500   2.4400  26.4100 H     1   SOL   0.5897
2308    MW   7.4100   2.4500  25.5400 M     1   SOL  -1.1794
2309    OW   0.7300  17.5800  32.1600 O     1   SOL   0.0000
2310   HW1   0.7300  17.5400  31.2000 H     1   SOL   0.5897
2311   HW2   0.4400  16.7100  32.4300 H     1   SOL   0.5897
2312    MW   0.6900  17.4600  32.0700 M     1   SOL  -1.1794
2313    OW   2.1200  20.8100  64.0300 O     1   SOL   0.0000
2314   HW1   2.1800  20.0600  63.4400 H     1   SOL   0.5897
2315   HW2   1.2900  21.2300  63.7900 H     1   SOL   0.5897
2316    MW   2.0200  20.7700  63.9100 M     1   SOL  -1.1794
2317    OW  16.8700   2.7300  61.3200 O     1   SOL   0.0000
2318   HW1  16.2900   1.9700  61.2400 H     1   SOL   0.5897
2319   HW2  17.7500   2.3600  61.3900 H     1   SOL   0.5897
2320    MW  16.9100   2.5800  61.3200 M     1   SOL  -1.1794
2321    OW   6.6600   9.2000  24.8700 O     1   SOL   0.0000
2322   HW1   6.6300   8.6300  25.6300 H     1   SOL   0.5897
2323   HW2   5.7500   9.3900  24.6700 H     1   SOL   0.5897
2324    MW   6.5400   9.1500  24.9500 M     1   SOL  -1.1794
2325    OW  18.1000  21.9400  50.6000 O     1   SOL   0.0000
2326   HW1  18.9800  21.6000  50.7400 H     1   SOL   0.5897
2327   HW2  17.8100  22.2100  51.4700 H     1   SOL   0.5897
2328    MW  18.1800  21.9300  50.7300 M     1   SOL  -1.1794
2329    OW   0.9300  21.0800  60.1000 O     1   SOL   0.0000
2330   HW1   1.3600  20.2300  60.1600 H     1   SOL   0.5897
2331   HW2   0.4600  21.0600  59.2600 H     1   SOL   0.5897
2332    MW   0.9200  20.9600  59.9900 M     1   SOL  -1.1794
2333    OW   1.0100  10.3900  27.1800 O     1   SOL   0.0000
2334   HW1   0.9100  10.2700  28.1200 H     1   SOL   0.5897
2335   HW2   0.6400  11.2600  27.0100 H     1   SOL   0.5897
2336    MW   0.9500  10.4900  27.2800 M     1   SOL  -1.1794
2337    OW   5.2000  17.1400  45.4200 O     1   SOL   0.0000
2338   HW1   4.4200  17.6200  45.7100 H     1   SOL   0.5897
2339   HW2   5.3100  16.4600  46.0800 H     1   SOL   0.5897
2340    MW   5.1100  17.1100  45.5500 M     1   SOL  -1.1794
2341    OW  21.5200  19.5600  34.7300 O     1   SOL   0.0000
2342   HW1  22.3000  19.5000  34.1800 H     1   SOL   0.5897
2343   HW2  21.8200  19.2900  35.6000 H     1   SOL   0.5897
2344    MW  21.6700  19.5100  34.7700 M     1   SOL  -1.1794
2345    OW   4.4200   6.0700  64.6200 O     1   SOL   0.0000
2346   HW1   5.3100   6.0500  64.2800 H     1   SOL   0.5897
2347   HW2   4.1900   7.0000  64.6200 H     1   SOL   0.5897
2348    MW   4.5100   6.1900  64.5800 M     1   SOL  -1.1794
2349    OW   7.9400  21.5200  23.5300 O     1   SOL   0.0000
2350   HW1   8.0400  22.2600  24.1300 H     1   SOL   0.5897
2351   HW2   8.5000  21.7400  22.7800 H     1   SOL   0.5897
2352    MW   8.0300  21.6500  23.5100 M     1   SOL  -1.1794
2353    OW  10.1100  17.4400  40.3400 O     1   SOL   0.0000
2354   HW1   9.4000  16.9300  40.7300 H     1   SOL   0.5897
2355   HW2   9.6900  18.2700  40.0800 H     1   SOL   0.5897
2356    MW   9.9600  17.4900  40.3600 M     1   SOL  -1.1794
2357    OW  15.6600   0.0600  54.0400 O     1   SOL   0.0000
2358   HW1  14.7600   0.3900  54.1300 H     1   SOL   0.5897
2359   HW2  16.0600   0.6600  53.4100 H     1   SOL   0.5897
2360    MW  15.5900   0.1900  53.9700 M     1   SOL  -1.1794
2361    OW  17.4500  21.8500  53.4500 O     1   SOL   0.0000
2362   HW1  16.7600  22.4800  53.6500 H     1   SOL   0.5897
2363   HW2  18.2600  22.3300  53.6100 H     1   SOL   0.5897
2364    MW  17.4700  22.0000  53.4900 M     1   SOL  -1.1794
2365    OW  13.0700   3.9300  34.5100 O     1   SOL   0.0000
2366   HW1  13.5400   4.6000  34.0100 H     1   SOL   0.5897
2367   HW2  12.8000   3.2800  33.8600 H     1   SOL   0.5897
2368    MW  13.1000   3.9400  34.3600 M     1   SOL  -1.1794
2369    OW   6.3400  16.5700  29.5300 O     1   SOL   0.0000
2370   HW1   6.9200  17.3400  29.5200 H     1   SOL   0.5897
2371   HW2   6.0100  16.5100  28.6400 H     1   SOL   0.5897
2372    MW   6.3800  16.6700  29.4100 M     1   SOL  -1.1794
2373    OW   8.5000   5.8900  58.6300 O     1   SOL   0.0000
2374   HW1   8.4100   6.7000  59.1400 H     1   SOL   0.5897
2375   HW2   9.1500   5.3800  59.1100 H     1   SOL   0.5897
2376    MW   8.5700   5.9300  58.7600 M     1   SOL  -1.1794
2377    OW  19.7900   2.1400  53.9400 O     1   SOL   0.0000
2378   HW1  19.3400   2.9000  53.5800 H     1   SOL   0.5897
2379   HW2  20.4800   2.5000  54.5000 H     1   SOL   0.5897
2380    MW  19.8200   2.2900  53.9600 M     1   SOL  -1.1794
2381    OW   6.6900  21.6800  42.6800 O     1   SOL   0.0000
2382   HW1   7.1500  22.2100  42.0400 H     1   SOL   0.5897
2383   HW2   7.2100  20.8800  42.7500 H     1   SOL   0.5897
2384    MW   6.8200  21.6400  42.6100 M     1   SOL  -1.1794
2385    OW   7.9600  23.3300  44.6200 O     1   SOL   0.0000
2386   HW1   7.2200  23.9400  44.5400 H     1   SOL   0.5897
2387   HW2   7.7100  22.5800  44.0800 H     1   SOL   0.5897
2388    MW   7.8200  23.3100  44.5400 M     1   SOL  -1.1794
2389    OW   7.6000  13.3300  43.3000 O     1   SOL   0.0000
2390   HW1   6.7400  13.4700  43.6900 H     1   SOL   0.5897
2391   HW2   7.8400  14.1800  42.9300 H     1   SOL   0.5897
2392    MW   7.5200  13.4600  43.3000 M     1   SOL  -1.1794
2393    OW  21.6400   4.2800  73.1400 O     1   SOL   0.0000
2394   HW1  20.9800   3.6400  73.4200 H     1   SOL   0.5897
2395   HW2  21.3900   5.0900  73.5900 H     1   SOL   0.5897
2396    MW  21.5200   4.3000  73.2400 M     1   SOL  -1.1794
2397    OW   6.3000   2.1800  55.5300 O     1   SOL   0.0000
2398   HW1   7.0300   2.0200  56.1300 H     1   SOL   0.5897
2399   HW2   6.0100   3.0700  55.7400 H     1   SOL   0.5897
2400    MW   6.3600   2.2800  55.6400 M     1   SOL  -1.1794
2401    OW   7.5600  11.8900  36.3700 O     1   SOL   0.0000
2402   HW1   8.1600  11.8100  37.1100 H     1   SOL   0.5897
2403   HW2   7.5000  11.0100  36.0000 H     1   SOL   0.5897
2404    MW   7.6300  11.7600  36.4200 M     1   SOL  -1.1794
2405    OW   3.0300  12.8700  65.3700 O     1   SOL   0.0000
2406   HW1   3.6900  13.5700  65.4300 H     1   SOL   0.5897
2407   HW2   3.4200  12.2300  64.7900 H     1   SOL   0.5897
2408    MW   3.1700  12.8800  65.3000 M     1   SOL  -1.1794
2409    OW  20.9000   1.0000  66.1500 O     1   SOL   0.0000
2410   HW1  19.9700   1.0700  65.9500 H     1   SOL   0.5897
2411   HW2  21.1300   1.8500  66.5400 H     1   SOL   0.5897
2412    MW  20.8000   1.1200  66.1800 M     1   SOL  -1.1794
2413    OW   4.9900  23.8600  69.3300 O     1   SOL   0.0000
2414   HW1   4.5300  24.6300  69.6600 H     1   SOL   0.5897
2415   HW2   4.3300  23.1600  69.3500 H     1   SOL   0.5897
2416    MW   4.8400  23.8700  69.3700 M     1   SOL  -1.1794
2417    OW  23.3900  18.7300  63.1700 O     1   SOL   0.0000
2418   HW1  23.2000  18.5800  62.2400 H     1   SOL   0.5897
2419   HW2  22.5300  18.8600  63.5700 H     1   SOL   0.5897
2420    MW  23.2500  18.7300  63.1000 M     1   SOL  -1.1794
2421    OW  11.1700  11.9300  64.0200 O     1   SOL   0.0000
2422   HW1  12.0100  12.2200  64.3600 H     1   SOL   0.5897
2423   HW2  11.3000  11.0000  63.8400 H     1   SOL   0.5897
2424    MW  11.3000  11.8400  64.0400 M     1   SOL  -1.1794
2425    OW  22.5500  20.2100  44.5000 O     1   SOL   0.0000
2426   HW1  22.4900  19.7000  45.3000 H     1   SOL   0.5897
2427   HW2  22.3800  19.5800  43.8000 H     1   SOL   0.5897
2428    MW  22.5200  20.0600  44.5100 M     1   SOL  -1.1794
2429    OW  10.5000   6.7000  70.4800 O     1   SOL   0.0000
2430   HW1  10.0700   6.1100  71.0900 H     1   SOL   0.5897
2431   HW2  10.5500   7.5300  70.9600 H     1   SOL   0.5897
2432    MW  10.4400   6.7300  70.6300 M     1   SOL  -1.1794
2433    OW  23.6100  20.0800  32.9100 O     1   SOL   0.0000
2434   HW1  24.0100  19.3000  32.5200 H     1   SOL   0.5897
2435   HW2  24.3300  20.7000  33.0000 H     1   SOL   0.5897
2436    MW  23.7600  20.0600  32.8700 M     1   SOL  -1.1794
2437    OW  11.1400   4.8900  39.2600 O     1   SOL   0.0000
2438   HW1  10.3300   4.3800  39.1500 H     1   SOL   0.5897
2439   HW2  11.8400   4.2400  39.2100 H     1   SOL   0.5897
2440    MW  11.1200   4.7300  39.2400 M     1   SOL  -1.1794
2441    OW   2.8600  23.2900  60.6800 O     1   SOL   0.0000
2442   HW1   2.3600  24.1000  60.6400 H     1   SOL   0.5897
2443   HW2   2.1900  22.6000  60.6900 H     1   SOL   0.5897
2444    MW   2.7000  23.3000  60.6700 M     1   SOL  -1.1794
2445    OW  10.4800   2.9300  51.7400 O     1   SOL   0.0000
2446   HW1   9.7300   2.8600  52.3300 H     1   SOL   0.5897
2447   HW2  10.1500   3.3800  50.9700 H     1   SOL   0.5897
2448    MW  10.3400   2.9800  51.7200 M     1   SOL  -1.1794
2449    OW  11.9300  13.5600  27.6900 O     1   SOL   0.0000
2450   HW1  11.1300  13.6100  28.2100 H     1   SOL   0.5897
2451   HW2  11.6700  13.9100  26.8300 H     1   SOL   0.5897
2452    MW  11.7900  13.6100  27.6400 M     1   SOL  -1.1794
2453    OW   9.2300   1.2400  64.7900 O     1   SOL   0.0000
2454   HW1   8.8300   0.4700  65.2000 H     1   SOL   0.5897
2455   HW2   8.4900   1.8100  64.5800 H     1   SOL   0.5897
2456    MW   9.0800   1.2100  64.8200 M     1   SOL  -1.1794
2457    OW   5.6400  14.7800  46.8100 O     1   SOL   0.0000
2458   HW1   6.4000  14.9500  47.3700 H     1   SOL   0.5897
2459   HW2   5.0900  14.1900  47.3300 H     1   SOL   0.5897
2460    MW   5.6700  14.7200  46.9600 M     1   SOL  -1.1794
2461    OW  21.5000  16.5900  50.5100 O     1   SOL   0.0000
2462   HW1  21.6200  15.7100  50.8800 H     1   SOL   0.5897
2463   HW2  21.0600  17.0800  51.2000 H     1   SOL   0.5897
2464    MW  21.4600  16.5400  50.6600 M     1   SOL  -1.1794
2465    OW   4.1300  21.5300  27.0600 O     1   SOL   0.0000
2466   HW1   4.5600  22.2600  26.6200 H     1   SOL   0.5897
2467   HW2   3.6100  21.9300  27.7500 H     1   SOL   0.5897
2468    MW   4.1200  21.6800  27.0900 M     1   SOL  -1.1794
2469    OW   8.1000  14.4200  65.7800 O     1   SOL   0.0000
2470   HW1   8.7900  14.7200  65.1900 H     1   SOL   0.5897
2471   HW2   7.9400  13.5200  65.5200 H     1   SOL   0.5897
2472    MW   8.1700  14.3400  65.6700 M     1   SOL  -1.1794
2473    OW  14.6800  22.6700  60.9300 O     1   SOL   0.0000
2474   HW1  14.6800  21.9100  61.5200 H     1   SOL   0.5897
2475   HW2  14.2500  23.3600  61.4300 H     1   SOL   0.5897
2476    MW  14.6200  22.6600  61.0800 M     1   SOL  -1.1794
2477    OW   7.8300   3.0700  72.2200 O     1   SOL   0.0000
2478   HW1   7.2000   3.5200  71.6600 H     1   SOL   0.5897
2479   HW2   7.3000   2.4800  72.7500 H     1   SOL   0.5897
2480    MW   7.6700   3.0500  72.2200 M     1   SOL  -1.1794
2481    OW  18.3900   3.6700  29.1000 O     1   SOL   0.0000
2482   HW1  18.9100   4.3800  28.7400 H     1   SOL   0.5897
2483   HW2  18.4300   2.9800  28.4400 H     1   SOL   0.5897
2484    MW  18.4600   3.6700  28.9600 M     1   SOL  -1.1794
2485    OW   2.8900  23.5700  42.0100 O     1   SOL   0.0000
2486   HW1   3.4200  23.5500  41.2100 H     1   SOL   0.5897
2487   HW2   3.4300  23.1300  42.6600 H     1   SOL   0.5897
2488    MW   3.0300  23.5000  41.9900 M     1   SOL  -1.1794
2489    OW   3.6000  11.5100  69.5200 O     1   SOL   0.0000
2490   HW1   3.6700  10.5700  69.6700 H     1   SOL   0.5897
2491   HW2   2.7100  11.6300  69.1700 H     1   SOL   0.5897
2492    MW   3.4900  11.4000  69.4900 M     1   SOL  -1.1794
2493    OW  15.0200  10.1100  27.4600 O     1   SOL   0.0000
2494   HW1  14.2600  10.5000  27.8800 H     1   SOL   0.5897
2495   HW2  15.3600   9.4800  28.1000 H     1   SOL   0.5897
2496    MW  14.9600  10.0700  27.6000 M     1   SOL  -1.1794
2497    OW   7.4600  11.3200  67.6900 O     1   SOL   0.0000
2498   HW1   7.9000  11.2900  66.8300 H     1   SOL   0.5897
2499   HW2   6.8200  12.0300  67.6000 H     1   SOL   0.5897
2500    MW   7.4400  11.4100  67.5600 M     1   SOL  -1.1794
2501    OW   0.3900   8.9700  32.8300 O     1   SOL   0.0000
2502   HW1   1.1200   8.3500  32.8000 H     1   SOL   0.5897
2503   HW2   0.0900   9.0300  31.9200 H     1   SOL   0.5897
2504    MW   0.4500   8.8900  32.7000 M     1   SOL  -1.1794
2505    OW   0.8200  13.5900  60.9400 O     1   SOL   0.0000
2506   HW1   1.1600  12.7000  60.9000 H     1   SOL   0.5897
2507   HW2   1.0200  13.8800  61.8300 H     1   SOL   0.5897
2508    MW   0.8900  13.5100  61.0600 M     1   SOL  -1.1794
2509    OW   4.4800   0.4500  39.6800 O     1   SOL   0.0000
2510   HW1   4.1200   1.3300  39.8300 H     1   SOL   0.5897
2511   HW2   4.1800   0.2200  38.8000 H     1   SOL   0.5897
2512    MW   4.3900   0.5400  39.5800 M     1   SOL  -1.1794
2513    OW   8.4800  17.2800  71.4900 O     1   SOL   0.0000
2514   HW1   7.6700  16.8100  71.6900 H     1   SOL   0.5897
2515   HW2   8.2400  17.8800  70.7900 H     1   SOL   0.5897
2516    MW   8.3400  17.3000  71.4300 M     1   SOL  -1.1794
2517    OW   2.3800   5.1100  63.0400 O     1   SOL   0.0000
2518   HW1   3.2500   5.2600  63.4100 H     1   SOL   0.5897
2519   HW2   1.8200   4.9900  63.8000 H     1   SOL   0.5897
2520    MW   2.4300   5.1100  63.1900 M     1   SOL  -1.1794
2521    OW   3.7300   6.4800  71.5700 O     1   SOL   0.0000
2522   HW1   3.8000   6.5900  72.5200 H     1   SOL   0.5897
2523   HW2   2.8000   6.3400  71.4100 H     1   SOL   0.5897
2524    MW   3.6200   6.4800  71.6700 M     1   SOL  -1.1794
2525    OW  10.4100   6.6300  28.9100 O     1   SOL   0.0000
2526   HW1  10.9300   6.8000  29.7000 H     1   SOL   0.5897
2527   HW2  10.8500   5.8800  28.5000 H     1   SOL   0.5897
2528    MW  10.5400   6.5500  28.9600 M     1   SOL  -1.1794
2529    OW   8.2500  12.0800  64.6900 O     1   SOL   0.0000
2530   HW1   7.7600  11.4800  64.1300 H     1   SOL   0.5897
2531   HW2   9.1000  12.1700  64.2700 H     1   SOL   0.5897
2532    MW   8.3000  12.0100  64.5600 M     1   SOL  -1.1794
2533    OW  23.2100  16.9900  56.2100 O     1   SOL   0.0000
2534   HW1  22.8000  17.5400  56.8700 H     1   SOL   0.5897
2535   HW2  24.0100  17.4600  55.9600 H     1   SOL   0.5897
2536    MW  23.2700  17.1300  56.2600 M     1   SOL  -1.1794
2537    OW   0.7600  14.8000  57.0400 O     1   SOL   0.0000
2538   HW1   0.3400  15.5300  56.5900 H     1   SOL   0.5897
2539   HW2   0.0400  14.3000  57.4200 H     1   SOL   0.5897
2540    MW   0.6100  14.8300  57.0300 M     1   SOL  -1.1794
2541    OW  23.3500  22.0200  72.5800 O     1   SOL   0.0000
2542   HW1  23.8100  22.5100  71.9000 H     1   SOL   0.5897
2543   HW2  22.8400  21.3700  72.1000 H     1   SOL   0.5897
2544    MW  23.3400  22.0000  72.4200 M     1   SOL  -1.1794
2545    OW  20.4900  18.9900  67.0000 O     1   SOL   0.0000
2546   HW1  21.2400  18.4200  67.1800 H     1   SOL   0.5897
2547   HW2  20.6200  19.2800  66.1000 H     1   SOL   0.5897
2548    MW  20.6100  18.9500  66.9000 M     1   SOL  -1.1794
2549    OW   7.5500  17.1700  62.7300 O     1   SOL   0.0000
2550   HW1   8.2200  16.6600  63.1800 H     1   SOL   0.5897
2551   HW2   7.0900  17.6400  63.4300 H     1   SOL   0.5897
2552    MW   7.5800  17.1600  62.8900 M     1   SOL  -1.1794
2553    OW  23.3500  10.0400  70.0200 O     1   SOL   0.0000
2554   HW1  24.0900   9.9700  70.6200 H     1   SOL   0.5897
2555   HW2  22.6600   9.5200  70.4300 H     1   SOL   0.5897
2556    MW  23.3600   9.9600  70.1600 M     1   SOL  -1.1794
2557    OW  19.7100   2.3200  47.8800 O     1   SOL   0.0000
2558   HW1  19.4400   1.6100  48.4600 H     1   SOL   0.5897
2559   HW2  20.6500   2.2000  47.7800 H     1   SOL   0.5897
2560    MW  19.8000   2.2100  47.9400 M     1   SOL  -1.1794
2561    OW   7.8000   7.7600  31.8900 O     1   SOL   0.0000
2562   HW1   7.4700   8.1500  32.6900 H     1   SOL   0.5897
2563   HW2   7.0400   7.7300  31.3000 H     1   SOL   0.5897
2564    MW   7.6600   7.8100  31.9200 M     1   SOL  -1.1794
2565    OW  20.4800  21.9100  64.0300 O     1   SOL   0.0000
2566   HW1  19.6600  21.7400  63.5600 H     1   SOL   0.5897
2567   HW2  20.8000  22.7400  63.6700 H     1   SOL   0.5897
2568    MW  20.4100  22.0000  63.9200 M     1   SOL  -1.1794
2569    OW   9.1800  12.3800  69.6900 O     1   SOL   0.0000
2570   HW1   8.6900  11.9100  69.0100 H     1   SOL   0.5897
2571   HW2  10.0300  12.5600  69.3000 H     1   SOL   0.5897
2572    MW   9.2300  12.3400  69.5500 M     1   SOL  -1.1794
2573    OW  10.5400  22.7700  45.8400 O     1   SOL   0.0000
2574   HW1  11.0700  23.4900  45.5100 H     1   SOL   0.5897
2575   HW2   9.6700  22.9200  45.4600 H     1   SOL   0.5897
2576    MW  10.4900  22.8900  45.7500 M     1   SOL  -1.1794
2577    OW   2.1300  12.5300  33.4900 O     1   SOL   0.0000
2578   HW1   2.4100  12.2900  32.6100 H     1   SOL   0.5897
2579   HW2   1.6100  11.7800  33.7800 H     1   SOL   0.5897
2580    MW   2.0900  12.3900  33.4100 M     1   SOL  -1.1794
2581    OW  22.2400  15.8800  46.6100 O     1   SOL   0.0000
2582   HW1  22.8000  15.1000  46.6200 H     1   SOL   0.5897
2583   HW2  21.6200  15.7300  47.3200 H     1   SOL   0.5897
2584    MW  22.2300  15.7500  46.7100 M     1   SOL  -1.1794
2585    OW  21.7300   3.6300  43.6800 O     1   SOL   0.0000
2586   HW1  22.4700   3.1900  44.0900 H     1   SOL   0.5897
2587   HW2  20.9900   3.4500  44.2600 H     1   SOL   0.5897
2588    MW  21.7300   3.5500  43.8100 M     1   SOL  -1.1794
2589    OW  20.6600   8.0600  48.2100 O     1   SOL   0.0000
2590   HW1  21.0900   8.9100  48.1100 H     1   SOL   0.5897
2591   HW2  19.8100   8.2700  48.5900 H     1   SOL   0.5897
2592    MW  20.6100   8.2000  48.2500 M     1   SOL  -1.1794
2593    OW  16.1600   4.2800  25.9200 O     1   SOL   0.0000
2594   HW1  16.4200   5.1800  25.7300 H     1   SOL   0.5897
2595   HW2  16.0000   4.2700  26.8600 H     1   SOL   0.5897
2596    MW  16.1700   4.4000  26.0200 M     1   SOL  -1.1794
2597    OW   4.9700   3.9600  25.3900 O     1   SOL   0.0000
2598   HW1   5.8300   3.5600  25.3200 H     1   SOL   0.5897
2599   HW2   4.4700   3.5800  24.6700 H     1   SOL   0.5897
2600    MW   5.0200   3.8600  25.2800 M     1   SOL  -1.1794
2601    OW  16.9200  19.0100  54.3000 O     1   SOL   0.0000
2602   HW1  16.9300  19.9600  54.1900 H     1   SOL   0.5897
2603   HW2  16.7700  18.6600  53.4200 H     1   SOL   0.5897
2604    MW  16.9000  19.0900  54.1700 M     1   SOL  -1.1794
2605    OW   9.7700  14.9700  72.0000 O     1   SOL   0.0000
2606   HW1   9.1700  15.7000  71.8500 H     1   SOL   0.5897
2607   HW2   9.2600  14.3200  72.4800 H     1   SOL   0.5897
2608    MW   9.6200  14.9800  72.0400 M     1   SOL  -1.1794
2609    OW  16.7100   6.9100  25.3300 O     1   SOL   0.0000
2610   HW1  17.2300   7.5000  25.8600 H     1   SOL   0.5897
2611   HW2  15.9100   7.4000  25.1300 H     1   SOL   0.5897
2612    MW  16.6700   7.0500  25.3800 M     1   SOL  -1.1794
2613    OW   5.3500  17.3200  35.4900 O     1   SOL   0.0000
2614   HW1   4.5400  16.8300  35.3900 H     1   SOL   0.5897
2615   HW2   5.8600  17.1100  34.7100 H     1   SOL   0.5897
2616    MW   5.3100  17.2200  35.3800 M     1   SOL  -1.1794
2617    OW  18.5600  15.1500  53.6300 O     1   SOL   0.0000
2618   HW1  19.3500  15.4800  54.0700 H     1   SOL   0.5897
2619   HW2  17.9900  14.8600  54.3500 H     1   SOL   0.5897
2620    MW  18.5900  15.1500  53.7900 M     1   SOL  -1.1794
2621    OW  14.8900  23.5100  33.8500 O     1   SOL   0.0000
2622   HW1  15.3700  24.2200  33.4100 H     1   SOL   0.5897
2623   HW2  15.3900  22.7200  33.6400 H     1   SOL   0.5897
2624    MW  15.0200  23.5000  33.7600 M     1   SOL  -1.1794
2625    OW  17.1800   6.6400  66.7200 O     1   SOL   0.0000
2626   HW1  16.3900   7.1600  66.5500 H     1   SOL   0.5897
2627   HW2  17.1900   5.9800  66.0200 H     1   SOL   0.5897
2628    MW  17.0800   6.6200  66.6000 M     1   SOL  -1.1794
2629    OW   9.6500   6.5600  41.7100 O     1   SOL   0.0000
2630   HW1  10.4200   6.0200  41.9100 H     1   SOL   0.5897
2631   HW2   9.9000   7.0200  40.9100 H     1   SOL   0.5897
2632    MW   9.7900   6.5500  41.6300 M     1   SOL  -1.1794
2633    OW   9.5100  15.7200  63.9000 O     1   SOL   0.0000
2634   HW1  10.1800  15.8600  64.5700 H     1   SOL   0.5897
2635   HW2   9.8300  14.9700  63.4000 H     1   SOL   0.5897
2636    MW   9.6400  15.6400  63.9200 M     1   SOL  -1.1794
2637    OW  16.1300   3.5700  69.9000 O     1   SOL   0.0000
2638   HW1  16.0100   3.2300  69.0100 H     1   SOL   0.5897
2639   HW2  17.0000   3.9700  69.8800 H     1   SOL   0.5897
2640    MW  16.2300   3.5800  69.7800 M     1   SOL  -1.1794
2641    OW   8.3200   2.4400  53.3400 O     1   SOL   0.0000
2642   HW1   7.9700   2.3800  54.2300 H     1   SOL   0.5897
2643   HW2   7.7500   3.0700  52.9000 H     1   SOL   0.5897
2644    MW   8.2000   2.5200  53.4000 M     1   SOL  -1.1794
2645    OW   8.5800  14.5200  39.0100 O     1   SOL   0.0000
2646   HW1   7.9400  14.7500  38.3400 H     1   SOL   0.5897
2647   HW2   9.4200  14.7700  38.6300 H     1   SOL   0.5897
2648    MW   8.6100  14.5900  38.8700 M     1   SOL  -1.1794
2649    OW  11.6800   8.8800  25.0500 O     1   SOL   0.0000
2650   HW1  11.5600   9.1000  25.9800 H     1   SOL   0.5897
2651   HW2  12.6200   8.7500  24.9500 H     1   SOL   0.5897
2652    MW  11.7900   8.8900  25.1600 M     1   SOL  -1.1794
2653    OW  15.3800   7.9100  34.1300 O     1   SOL   0.0000
2654   HW1  16.3300   7.7600  34.1300 H     1   SOL   0.5897
2655   HW2  15.0400   7.2000  33.5800 H     1   SOL   0.5897
2656    MW  15.4600   7.7900  34.0500 M     1   SOL  -1.1794
2657    OW   5.7900  18.1200  42.8500 O     1   SOL   0.0000
2658   HW1   5.6700  17.7900  43.7400 H     1   SOL   0.5897
2659   HW2   5.0000  18.6300  42.6800 H     1   SOL   0.5897
2660    MW   5.6700  18.1500  42.9500 M     1   SOL  -1.1794
2661    OW  14.3500  19.5100  35.9800 O     1   SOL   0.0000
2662   HW1  14.6000  18.7400  35.4700 H     1   SOL   0.5897
2663   HW2  13.4700  19.3100  36.2900 H     1   SOL   0.5897
2664    MW  14.2700  19.3800  35.9500 M     1   SOL  -1.1794
2665    OW   7.8200  15.8300  41.3600 O     1   SOL   0.0000
2666   HW1   7.9200  15.2700  40.5900 H     1   SOL   0.5897
2667   HW2   6.8800  15.8800  41.5000 H     1   SOL   0.5897
2668    MW   7.7100  15.7600  41.2700 M     1   SOL  -1.1794
2669    OW  23.3200   3.7300  49.5900 O     1   SOL   0.0000
2670   HW1  22.9800   4.6000  49.7900 H     1   SOL   0.5897
2671   HW2  23.1500   3.2100  50.3700 H     1   SOL   0.5897
2672    MW  23.2500   3.7800  49.7200 M     1   SOL  -1.1794
2673    OW  17.7300  22.8000  42.8400 O     1   SOL   0.0000
2674   HW1  17.8000  23.6600  43.2600 H     1   SOL   0.5897
2675   HW2  16.8800  22.4600  43.1200 H     1   SOL   0.5897
2676    MW  17.6300  22.8700  42.9300 M     1   SOL  -1.1794
2677    OW   7.1600   3.0700  63.7900 O     1   SOL   0.0000
2678   HW1   6.9500   2.9000  62.8700 H     1   SOL   0.5897
2679   HW2   6.9600   4.0000  63.9100 H     1   SOL   0.5897
2680    MW   7.1100   3.1800  63.6800 M     1   SOL  -1.1794
2681    OW   1.3800   1.6900  60.9300 O     1   SOL   0.0000
2682   HW1   2.1000   2.2100  61.3000 H     1   SOL   0.5897
2683   HW2   0.9500   1.2900  61.6900 H     1   SOL   0.5897
2684    MW   1.4200   1.7100  61.0800 M     1   SOL  -1.1794
2685    OW   3.2100  18.6900  52.9100 O     1   SOL   0.0000
2686   HW1   3.7200  18.8400  53.7000 H     1   SOL   0.5897
2687   HW2   3.6400  17.9500  52.4800 H     1   SOL   0.5897
2688    MW   3.3400  18.6100  52.9600 M     1   SOL  -1.1794
2689    OW  16.7300   7.3200  44.1600 O     1   SOL   0.0000
2690   HW1  17.3300   7.5700  43.4600 H     1   SOL   0.5897
2691   HW2  16.2100   6.6100  43.7900 H     1   SOL   0.5897
2692    MW  16.7400   7.2600  44.0100 M     1   SOL  -1.1794
2693    OW   2.5200  22.6800  69.3300 O     1   SOL   0.0000
2694   HW1   1.8100  22.0500  69.4800 H     1   SOL   0.5897
2695   HW2   2.1900  23.2700  68.6600 H     1   SOL   0.5897
2696    MW   2.3800  22.6700  69.2600 M     1   SOL  -1.1794
2697    OW  14.0900  17.3700  39.9700 O     1   SOL   0.0000
2698   HW1  13.4700  17.5200  39.2600 H     1   SOL   0.5897
2699   HW2  13.5500  17.3200  40.7600 H     1   SOL   0.5897
2700    MW  13.9400  17.3900  39.9800 M     1   SOL  -1.1794
2701    OW  20.7700  14.8400  63.6700 O     1   SOL   0.0000
2702   HW1  20.9600  14.0500  63.1800 H     1   SOL   0.5897
2703   HW2  20.7400  15.5300  63.0100 H     1   SOL   0.5897
2704    MW  20.7900  14.8300  63.5200 M     1   SOL  -1.1794
2705    OW   0.7400  21.9900  52.5100 O     1   SOL   0.0000
2706   HW1   1.1400  21.4900  51.8100 H     1   SOL   0.5897
2707   HW2   1.2500  21.7600  53.2900 H     1   SOL   0.5897
2708    MW   0.8700  21.8900  52.5200 M     1   SOL  -1.1794
2709    OW  19.4600  13.8300  47.0000 O     1   SOL   0.0000
2710   HW1  19.5700  14.7400  47.2600 H     1   SOL   0.5897
2711   HW2  18.5200  13.7200  46.9100 H     1   SOL   0.5897
2712    MW  19.3500  13.9400  47.0300 M     1   SOL  -1.1794
2713    OW   2.4900   3.7600  68.5200 O     1   SOL   0.0000
2714   HW1   3.1800   3.8700  67.8700 H     1   SOL   0.5897
2715   HW2   1.7100   3.5600  68.0100 H     1   SOL   0.5897
2716    MW   2.4800   3.7500  68.3600 M     1   SOL  -1.1794
2717    OW  13.1400   3.7000  62.3000 O     1   SOL   0.0000
2718   HW1  12.2700   3.8300  62.6800 H     1   SOL   0.5897
2719   HW2  13.2000   4.3500  61.6000 H     1   SOL   0.5897
2720    MW  13.0300   3.8000  62.2500 M     1   SOL  -1.1794
2721    OW  12.8000  17.2600  25.6300 O     1   SOL   0.0000
2722   HW1  11.9100  17.2400  25.2700 H     1   SOL   0.5897
2723   HW2  12.6700  17.3300  26.5800 H     1   SOL   0.5897
2724    MW  12.6600  17.2700  25.7100 M     1   SOL  -1.1794
2725    OW   7.2900   4.8000  31.9400 O     1   SOL   0.0000
2726   HW1   7.5700   4.4700  31.0900 H     1   SOL   0.5897
2727   HW2   7.4300   5.7500  31.8800 H     1   SOL   0.5897
2728    MW   7.3500   4.8900  31.8200 M     1   SOL  -1.1794
2729    OW  15.4800   7.7900  29.1200 O     1   SOL   0.0000
2730   HW1  15.0600   8.2200  29.8800 H     1   SOL   0.5897
2731   HW2  14.8400   7.1300  28.8400 H     1   SOL   0.5897
2732    MW  15.3400   7.7600  29.1900 M     1   SOL  -1.1794
2733    OW   6.1300   9.8100  28.0100 O     1   SOL   0.0000
2734   HW1   5.5300  10.4200  27.5700 H     1   SOL   0.5897
2735   HW2   6.9600   9.9100  27.5400 H     1   SOL   0.5897
2736    MW   6.1600   9.9100  27.8900 M     1   SOL  -1.1794
2737    OW   3.1700  19.9700  72.1300 O     1   SOL   0.0000
2738   HW1   4.0600  20.1500  71.8300 H     1   SOL   0.5897
2739   HW2   3.0200  19.0600  71.8800 H     1   SOL   0.5897
2740    MW   3.2700  19.8700  72.0500 M     1   SOL  -1.1794
2741    OW   5.5200  16.1300  26.8400 O     1   SOL   0.0000
2742   HW1   6.2800  16.4400  26.3400 H     1   SOL   0.5897
2743   HW2   4.7700  16.5600  26.4200 H     1   SOL   0.5897
2744    MW   5.5200  16.2300  26.7100 M     1   SOL  -1.1794
2745    OW   8.0500   8.1600  52.2900 O     1   SOL   0.0000
2746   HW1   8.6000   8.8400  52.6700 H     1   SOL   0.5897
2747   HW2   7.7300   7.6600  53.0400 H     1   SOL   0.5897
2748    MW   8.0800   8.1800  52.4400 M     1   SOL  -1.1794
2749    OW  20.7500  21.2900  68.8900 O     1   SOL   0.0000
2750   HW1  20.5700  20.7200  68.1400 H     1   SOL   0.5897
2751   HW2  21.2700  22.0000  68.5300 H     1   SOL   0.5897
2752    MW  20.7900  21.3100  68.7400 M     1   SOL  -1.1794
2753    OW   8.9200  13.0600  47.9900 O     1   SOL   0.0000
2754   HW1   9.6100  12.6500  48.5100 H     1   SOL   0.5897
2755   HW2   9.2000  12.9600  47.0800 H     1   SOL   0.5897
2756    MW   9.0500  12.9900  47.9400 M     1   SOL  -1.1794
2757    OW   8.2300  22.0100  33.9000 O     1   SOL   0.0000
2758   HW1   7.3100  21.9800  34.1700 H     1   SOL   0.5897
2759   HW2   8.7100  21.6300  34.6300 H     1   SOL   0.5897
2760    MW   8.1700  21.9600  34.0300 M     1   SOL  -1.1794
2761    OW   1.6000  11.1300  61.9500 O     1   SOL   0.0000
2762   HW1   2.4400  10.9900  62.3800 H     1   SOL   0.5897
2763   HW2   1.5000  10.3900  61.3600 H     1   SOL   0.5897
2764    MW   1.7000  11.0200  61.9300 M     1   SOL  -1.1794
2765    OW   9.1900  11.7000  38.9500 O     1   SOL   0.0000
2766   HW1  10.1300  11.5600  39.0800 H     1   SOL   0.5897
2767   HW2   9.0500  12.6100  39.2000 H     1   SOL   0.5897
2768    MW   9.3000  11.8000  39.0000 M     1   SOL  -1.1794
2769    OW   7.5700   2.9400  33.9500 O     1   SOL   0.0000
2770   HW1   6.7200   2.6400  34.2800 H     1   SOL   0.5897
2771   HW2   7.3500   3.5800  33.2800 H     1   SOL   0.5897
2772    MW   7.4300   2.9800  33.9100 M     1   SOL  -1.1794
2773    OW   9.7200   0.0700  50.2200 O     1   SOL   0.0000
2774   HW1   8.9600   0.0100  50.8000 H     1   SOL   0.5897
2775   HW2   9.4300   0.6100  49.4900 H     1   SOL   0.5897
2776    MW   9.5800   0.1400  50.2000 M     1   SOL  -1.1794
2777    OW  22.3600  12.2100  72.0700 O     1   SOL   0.0000
2778   HW1  23.1400  11.6700  71.9200 H     1   SOL   0.5897
2779   HW2  21.8500  12.1200  71.2700 H     1   SOL   0.5897
2780    MW  22.4000  12.1300  71.9400 M     1   SOL  -1.1794
2781    OW   1.9700  18.5900  60.3800 O     1   SOL   0.0000
2782   HW1   1.6000  17.7200  60.2200 H     1   SOL   0.5897
2783   HW2   2.7600  18.6200  59.8300 H     1   SOL   0.5897
2784    MW   2.0300  18.4800  60.2800 M     1   SOL  -1.1794
2785    OW  22.0300   3.0600  41.0000 O     1   SOL   0.0000
2786   HW1  22.7500   2.4200  41.0000 H     1   SOL   0.5897
2787   HW2  21.8900   3.2500  41.9300 H     1   SOL   0.5897
2788    MW  22.1100   3.0000  41.1300 M     1   SOL  -1.1794
2789    OW  19.8000  18.1900  52.0100 O     1   SOL   0.0000
2790   HW1  19.8700  18.6200  52.8600 H     1   SOL   0.5897
2791   HW2  18.9500  17.7400  52.0400 H     1   SOL   0.5897
2792    MW  19.6900  18.1800  52.1300 M     1   SOL  -1.1794
2793    OW   3.3200   8.5100  64.3300 O     1   SOL   0.0000
2794   HW1   2.7000   8.6400  65.0500 H     1   SOL   0.5897
2795   HW2   2.7800   8.4900  63.5500 H     1   SOL   0.5897
2796    MW   3.1600   8.5300  64.3200 M     1   SOL  -1.1794
2797    OW   6.1600  15.7700  59.5700 O     1   SOL   0.0000
2798   HW1   6.4800  15.5200  60.4400 H     1   SOL   0.5897
2799   HW2   5.6100  16.5400  59.7400 H     1   SOL   0.5897
2800    MW   6.1300  15.8400  59.7100 M     1   SOL  -1.1794
2801    OW  15.0400   8.9900  36.9000 O     1   SOL   0.0000
2802   HW1  15.7500   9.6300  36.7800 H     1   SOL   0.5897
2803   HW2  15.0700   8.4500  36.1100 H     1   SOL   0.5897
2804    MW  15.1400   9.0000  36.7800 M     1   SOL  -1.1794
2805    OW  21.1000  19.8800  39.4000 O     1   SOL   0.0000
2806   HW1  21.8300  20.3400  39.8300 H     1   SOL   0.5897
2807   HW2  21.5000  19.1600  38.9300 H     1   SOL   0.5897
2808    MW  21.2500  19.8500  39.4000 M     1   SOL  -1.1794
2809    OW   4.0900  13.2400  48.3200 O     1   SOL   0.0000
2810   HW1   4.8600  12.6900  48.4600 H     1   SOL   0.5897
2811   HW2   4.0800  13.8400  49.0700 H     1   SOL   0.5897
2812    MW   4.1900  13.2500  48.4400 M     1   SOL  -1.1794
2813    OW  20.4900  20.7900  50.9100 O     1   SOL   0.0000
2814   HW1  20.2200  19.8900  51.1000 H     1   SOL   0.5897
2815   HW2  21.3200  20.7000  50.4400 H     1   SOL   0.5897
2816    MW  20.5700  20.6500  50.8700 M     1   SOL  -1.1794
2817    OW  11.8300  10.1900  34.3300 O     1   SOL   0.0000
2818   HW1  11.0200  10.7100  34.3500 H     1   SOL   0.5897
2819   HW2  11.6500   9.4900  33.7100 H     1   SOL   0.5897
2820    MW  11.7000  10.1700  34.2500 M     1   SOL  -1.1794
2821    OW   5.4700  23.6300  26.1300 O     1   SOL   0.0000
2822   HW1   5.1800  23.8800  25.2600 H     1   SOL   0.5897
2823   HW2   5.3900  24.4300  26.6500 H     1   SOL   0.5897
2824    MW   5.4200  23.7700  26.0800 M     1   SOL  -1.1794
2825    OW  18.0600  14.5100  64.3700 O     1   SOL   0.0000
2826   HW1  17.7200  14.2100  63.5300 H     1   SOL   0.5897
2827   HW2  18.9500  14.8100  64.1800 H     1   SOL   0.5897
2828    MW  18.1400  14.5100  64.2300 M     1   SOL  -1.1794
2829    OW  18.1300   5.4900  37.0000 O     1   SOL   0.0000
2830   HW1  17.7800   4.6100  37.1100 H     1   SOL   0.5897
2831   HW2  19.0000   5.4600  37.3900 H     1   SOL   0.5897
2832    MW  18.2000   5.3700  37.0700 M     1   SOL  -1.1794
2833    OW  17.0300  22.8300  40.0800 O     1   SOL   0.0000
2834   HW1  17.5000  22.7700  40.9200 H     1   SOL   0.5897
2835   HW2  16.2000  22.3900  40.2500 H     1   SOL   0.5897
2836    MW  16.9800  22.7600  40.2200 M     1   SOL  -1.1794
2837    OW  15.1200  13.1900  67.3800 O     1   SOL   0.0000
2838   HW1  15.8400  12.6700  67.7300 H     1   SOL   0.5897
2839   HW2  15.5300  14.0100  67.0900 H     1   SOL   0.5897
2840    MW  15.2700  13.2300  67.3900 M     1   SOL  -1.1794
2841    OW   3.9600   5.5400  40.4500 O     1   SOL   0.0000
2842   HW1   3.9700   5.5000  41.4100 H     1   SOL   0.5897
2843   HW2   4.8900   5.6100  40.2100 H     1   SOL   0.5897
2844    MW   4.0900   5.5400  40.5500 M     1   SOL  -1.1794
2845    OW  18.7000  12.9600  58.7800 O     1   SOL   0.0000
2846   HW1  19.2200  13.6900  59.1100 H     1   SOL   0.5897
2847   HW2  17.8000  13.2800  58.7800 H     1   SOL   0.5897
2848    MW  18.6500  13.1000  58.8200 M     1   SOL  -1.1794
2849    OW   1.2200  16.1300  59.6800 O     1   SOL   0.0000
2850   HW1   1.0300  15.8900  58.7800 H     1   SOL   0.5897
2851   HW2   1.1300  15.3200  60.1700 H     1   SOL   0.5897
2852    MW   1.1800  15.9900  59.6300 M     1   SOL  -1.1794
2853    OW  11.2300   4.0600  27.5900 O     1   SOL   0.0000
2854   HW1  10.6700   4.2100  26.8200 H     1   SOL   0.5897
2855   HW2  11.0300   3.1600  27.8500 H     1   SOL   0.5897
2856    MW  11.1200   3.9600  27.5200 M     1   SOL  -1.1794
2857    OW  18.1600   1.3100  35.1600 O     1   SOL   0.0000
2858   HW1  17.6000   1.9000  35.6600 H     1   SOL   0.5897
2859   HW2  17.8200   1.3600  34.2600 H     1   SOL   0.5897
2860    MW  18.0400   1.4000  35.1000 M     1   SOL  -1.1794
2861    OW  16.9700  17.9200  51.6800 O     1   SOL   0.0000
2862   HW1  16.9300  18.6100  51.0200 H     1   SOL   0.5897
2863   HW2  16.3200  17.2800  51.4000 H     1   SOL   0.5897
2864    MW  16.8800  17.9300  51.5600 M     1   SOL  -1.1794
2865    OW  20.7600  21.8100  25.6500 O     1   SOL   0.0000
2866   HW1  20.3000  20.9800  25.5300 H     1   SOL   0.5897
2867   HW2  21.6100  21.6700  25.2200 H     1   SOL   0.5897
2868    MW  20.8100  21.6800  25.5700 M     1   SOL  -1.1794
2869    OW   2.7600  17.6500  70.5200 O     1   SOL   0.0000
2870   HW1   2.6300  16.7500  70.8000 H     1   SOL   0.5897
2871   HW2   3.5300  17.6100  69.9500 H     1   SOL   0.5897
2872    MW   2.8500  17.5200  70.4800 M     1   SOL  -1.1794
2873    OW  11.4900   9.2200  60.0000 O     1   SOL   0.0000
2874   HW1  11.7700   9.4000  59.1000 H     1   SOL   0.5897
2875   HW2  11.3100  10.0800  60.3800 H     1   SOL   0.5897
2876    MW  11.5000   9.3600  59.9300 M     1   SOL  -1.1794
2877    OW  21.3000   6.3200  43.5100 O     1   SOL   0.0000
2878   HW1  21.0900   6.8500  44.2800 H     1   SOL   0.5897
2879   HW2  21.5000   5.4500  43.8700 H     1   SOL   0.5897
2880    MW  21.3000   6.2700  43.6600 M     1   SOL  -1.1794
2881    OW  17.7500   1.6400  43.2900 O     1   SOL   0.0000
2882   HW1  18.2400   1.8900  44.0700 H     1   SOL   0.5897
2883   HW2  18.0300   2.2600  42.6200 H     1   SOL   0.5897
2884    MW  17.8500   1.7600  43.3100 M     1   SOL  -1.1794
2885    OW  13.8300  12.5500  65.0200 O     1   SOL   0.0000
2886   HW1  14.2200  13.3200  64.6000 H     1   SOL   0.5897
2887   HW2  14.1400  12.5900  65.9300 H     1   SOL   0.5897
2888    MW  13.9300  12.6600  65.0900 M     1   SOL  -1.1794
2889    OW   5.4600  18.9600  64.0300 O     1   SOL   0.0000
2890   HW1   4.6900  19.0400  63.4600 H     1   SOL   0.5897
2891   HW2   5.8700  19.8300  64.0100 H     1   SOL   0.5897
2892    MW   5.4100  19.0900  63.9500 M     1   SOL  -1.1794
2893    OW   8.7200   4.3400  36.0500 O     1   SOL   0.0000
2894   HW1   8.3600   3.9000  35.2700 H     1   SOL   0.5897
2895   HW2   9.4000   4.9100  35.7000 H     1   SOL   0.5897
2896    MW   8.7600   4.3600  35.9000 M     1   SOL  -1.1794
2897    OW   9.4300  20.7600  36.0200 O     1   SOL   0.0000
2898   HW1   9.9700  21.5200  36.2200 H     1   SOL   0.5897
2899   HW2   8.7400  20.7700  36.6700 H     1   SOL   0.5897
2900    MW   9.4100  20.8600  36.1300 M     1   SOL  -1.1794
2901    OW  16.1900  21.2000  33.8300 O     1   SOL   0.0000
2902   HW1  15.4400  20.8600  34.3300 H     1   SOL   0.5897
2903   HW2  16.8400  21.4100  34.5000 H     1   SOL   0.5897
2904    MW  16.1800  21.1800  33.9900 M     1   SOL  -1.1794
2905    OW  15.5900   3.6900  28.8000 O     1   SOL   0.0000
2906   HW1  15.5400   2.8400  28.3700 H     1   SOL   0.5897
2907   HW2  16.5200   3.8500  28.9400 H     1   SOL   0.5897
2908    MW  15.7100   3.6000  28.7600 M     1   SOL  -1.1794
2909    OW   6.0000  12.7400  52.3600 O     1   SOL   0.0000
2910   HW1   5.3200  13.1000  52.9400 H     1   SOL   0.5897
2911   HW2   6.3000  13.5000  51.8600 H     1   SOL   0.5897
2912    MW   5.9500  12.8900  52.3700 M     1   SOL  -1.1794
2913    OW   1.9800  23.6100  35.1100 O     1   SOL   0.0000
2914   HW1   1.1500  23.9700  35.4300 H     1   SOL   0.5897
2915   HW2   1.7100  22.9300  34.4800 H     1   SOL   0.5897
2916    MW   1.8300  23.5700  35.0700 M     1   SOL  -1.1794
2917    OW   3.3200  15.3800  56.3000 O     1   SOL   0.0000
2918   HW1   3.2900  16.2700  56.6500 H     1   SOL   0.5897
2919   HW2   2.4100  15.0800  56.3500 H     1   SOL   0.5897
2920    MW   3.1900  15.4600  56.3500 M     1   SOL  -1.1794
2921    OW  11.8100   0.9300  44.6500 O     1   SOL   0.0000
2922   HW1  12.6300   0.4600  44.7700 H     1   SOL   0.5897
2923   HW2  11.7800   1.5600  45.3700 H     1   SOL   0.5897
2924    MW  11.9100   0.9500  44.7600 M     1   SOL  -1.1794
2925    OW   5.1400  17.8000  68.9700 O     1   SOL   0.0000
2926   HW1   5.1500  17.7800  68.0100 H     1   SOL   0.5897
2927   HW2   5.3200  16.8900  69.2300 H     1   SOL   0.5897
2928    MW   5.1600  17.6700  68.8700 M     1   SOL  -1.1794
2929    OW  14.1100  15.1700  28.6800 O     1   SOL   0.0000
2930   HW1  13.5000  15.9100  28.6600 H     1   SOL   0.5897
2931   HW2  13.6500  14.4600  28.2300 H     1   SOL   0.5897
2932    MW  13.9700  15.1800  28.6200 M     1   SOL  -1.1794
2933    OW   1.9100   0.8500  50.5900 O     1   SOL   0.0000
2934   HW1   2.3600   1.6900  50.5800 H     1   SOL   0.5897
2935   HW2   1.5500   0.7800  51.4800 H     1   SOL   0.5897
2936    MW   1.9200   0.9500  50.7100 M     1   SOL  -1.1794
2937    OW  12.8700   0.8800  61.7200 O     1   SOL   0.0000
2938   HW1  11.9800   0.7000  62.0200 H     1   SOL   0.5897
2939   HW2  13.0300   1.7900  61.9600 H     1   SOL   0.5897
2940    MW  12.7700   0.9800  61.7900 M     1   SOL  -1.1794
2941    OW   8.2600  17.6200  58.2500 O     1   SOL   0.0000
2942   HW1   7.4900  17.1700  58.6300 H     1   SOL   0.5897
2943   HW2   7.8800  18.2900  57.6800 H     1   SOL   0.5897
2944    MW   8.1000  17.6500  58.2300 M     1   SOL  -1.1794
2945    OW   2.2400  15.7600  37.6600 O     1   SOL   0.0000
2946   HW1   2.7200  16.0100  38.4500 H     1   SOL   0.5897
2947   HW2   2.0200  14.8400  37.8000 H     1   SOL   0.5897
2948    MW   2.2800  15.6700  37.7800 M     1   SOL  -1.1794
2949    OW  17.0600   2.9000  37.1300 O     1   SOL   0.0000
2950   HW1  17.1300   2.4000  37.9500 H     1   SOL   0.5897
2951   HW2  16.1300   2.8800  36.9200 H     1   SOL   0.5897
2952    MW  16.9400   2.8300  37.2100 M     1   SOL  -1.1794
2953    OW   1.1300   5.8000  70.0800 O     1   SOL   0.0000
2954   HW1   1.7300   5.1800  69.6700 H     1   SOL   0.5897
2955   HW2   0.3600   5.2700  70.3100 H     1   SOL   0.5897
2956    MW   1.1100   5.6400  70.0600 M     1   SOL  -1.1794
2957    OW  14.4000   5.6600  53.7500 O     1   SOL   0.0000
2958   HW1  14.5000   5.8200  52.8100 H     1   SOL   0.5897
2959   HW2  15.3000   5.6300  54.0900 H     1   SOL   0.5897
2960    MW  14.5400   5.6700  53.6700 M     1   SOL  -1.1794
2961    OW  13.4300  11.3500  41.7500 O     1   SOL   0.0000
2962   HW1  12.9500  11.8100  41.0600 H     1   SOL   0.5897
2963   HW2  14.3400  11.6300  41.6400 H     1   SOL   0.5897
2964    MW  13.4900  11.4500  41.6400 M     1   SOL  -1.1794
2965    OW  17.7800  14.5200  40.4700 O     1   SOL   0.0000
2966   HW1  17.2700  13.8000  40.8500 H     1   SOL   0.5897
2967   HW2  17.1700  14.9400  39.8500 H     1   SOL   0.5897
2968    MW  17.6300  14.4800  40.4300 M     1   SOL  -1.1794
2969    OW  15.1800  17.2900  34.2300 O     1   SOL   0.0000
2970   HW1  15.2100  17.6700  33.3500 H     1   SOL   0.5897
2971   HW2  16.0000  16.8000  34.3000 H     1   SOL   0.5897
2972    MW  15.2900  17.2700  34.1200 M     1   SOL  -1.1794
2973    OW  19.6900  13.0300  38.4700 O     1   SOL   0.0000
2974   HW1  19.2900  13.3100  39.2900 H     1   SOL   0.5897
2975   HW2  20.5600  13.4200  38.4700 H     1   SOL   0.5897
2976    MW  19.7500  13.1200  38.5800 M     1   SOL  -1.1794
2977    OW   4.6700   8.1500  69.7400 O     1   SOL   0.0000
2978   HW1   5.5900   8.3700  69.8600 H     1   SOL   0.5897
2979   HW2   4.4400   7.6300  70.5200 H     1   SOL   0.5897
2980    MW   4.7600   8.1100  69.8600 M     1   SOL  -1.1794
2981    OW  17.2200   1.6500  39.5900 O     1   SOL   0.0000
2982   HW1  18.0400   1.8600  40.0400 H     1   SOL   0.5897
2983   HW2  17.1100   0.7100  39.7100 H     1   SOL   0.5897
2984    MW  17.3200   1.5600  39.6600 M     1   SOL  -1.1794
2985    OW   4.7100  21.1700  40.7900 O     1   SOL   0.0000
2986   HW1   5.5000  21.4600  41.2400 H     1   SOL   0.5897
2987   HW2   4.3000  20.5600  41.3900 H     1   SOL   0.5897
2988    MW   4.7600  21.1300  40.9300 M     1   SOL  -1.1794
2989    OW   2.9100  16.2100  35.0700 O     1   SOL   0.0000
2990   HW1   2.6300  16.0900  35.9800 H     1   SOL   0.5897
2991   HW2   2.3800  15.5800  34.5700 H     1   SOL   0.5897
2992    MW   2.8000  16.1100  35.1200 M     1   SOL  -1.1794
2993    OW   9.2100  20.0400  40.1700 O     1   SOL   0.0000
2994   HW1  10.0500  20.4100  39.9000 H     1   SOL   0.5897
2995   HW2   8.5900  20.3300  39.4900 H     1   SOL   0.5897
2996    MW   9.2400  20.1300  40.0400 M     1   SOL  -1.1794
2997    OW  23.7200   7.3000  65.5800 O     1   SOL   0.0000
2998   HW1  24.1900   7.9400  66.1200 H     1   SOL   0.5897
2999   HW2  24.3600   6.6100  65.4200 H     1   SOL   0.5897
3000    MW  23.8700   7.2900  65.6300 M     1   SOL  -1.1794
3001    OW   3.4700  20.0500  24.7700 O     1   SOL   0.0000
3002   HW1   3.4500  20.6500  24.0200 H     1   SOL   0.5897
3003   HW2   3.4600  20.6300  25.5300 H     1   SOL   0.5897
3004    MW   3.4600  20.2100  24.7700 M     1   SOL  -1.1794
3005    OW   2.2400  11.9100  46.5300 O     1   SOL   0.0000
3006   HW1   2.7600  12.3500  47.2000 H     1   SOL   0.5897
3007   HW2   2.8300  11.8300  45.7800 H     1   SOL   0.5897
3008    MW   2.3900  11.9600  46.5200 M     1   SOL  -1.1794
3009    OW  21.0100  17.1000  26.5900 O     1   SOL   0.0000
3010   HW1  21.9100  16.9200  26.3200 H     1   SOL   0.5897
3011   HW2  20.5500  16.2700  26.4800 H     1   SOL   0.5897
3012    MW  21.0700  16.9700  26.5400 M     1   SOL  -1.1794
3013    OW  15.4500   7.8100  39.5600 O     1   SOL   0.0000
3014   HW1  15.9500   6.9900  39.5100 H     1   SOL   0.5897
3015   HW2  15.3800   8.1100  38.6500 H     1   SOL   0.5897
3016    MW  15.5100   7.7400  39.4300 M     1   SOL  -1.1794
3017    OW  20.5100  11.7700  70.1100 O     1   SOL   0.0000
3018   HW1  20.0400  10.9900  69.7900 H     1   SOL   0.5897
3019   HW2  19.8100  12.3800  70.3400 H     1   SOL   0.5897
3020    MW  20.3500  11.7400  70.1000 M     1   SOL  -1.1794
3021    OW  11.2300  14.2700  37.8200 O     1   SOL   0.0000
3022   HW1  11.5600  14.0200  36.9500 H     1   SOL   0.5897
3023   HW2  11.6400  15.1100  37.9900 H     1   SOL   0.5897
3024    MW  11.3300  14.3500  37.7200 M     1   SOL  -1.1794
3025    OW   7.9100  18.9800  29.8200 O     1   SOL   0.0000
3026   HW1   8.2900  19.4700  30.5500 H     1   SOL   0.5897
3027   HW2   7.4600  19.6500  29.2900 H     1   SOL   0.5897
3028    MW   7.9000  19.1400  29.8400 M     1   SOL  -1.1794
3029    OW   0.2100  17.5800  38.5100 O     1   SOL   0.0000
3030   HW1   0.8800  16.9700  38.2200 H     1   SOL   0.5897
3031   HW2  -0.1500  17.1800  39.3100 H     1   SOL   0.5897
3032    MW   0.2500  17.4500  38.5800 M     1   SOL  -1.1794
3033    OW   4.6300  14.5000  54.0500 O     1   SOL   0.0000
3034   HW1   5.4000  15.0500  54.1400 H     1   SOL   0.5897
3035   HW2   4.1600  14.6100  54.8800 H     1   SOL   0.5897
3036    MW   4.6700  14.5900  54.1800 M     1   SOL  -1.1794
3037    OW  11.5600  21.7200  30.3800 O     1   SOL   0.0000
3038   HW1  12.2600  21.1000  30.1600 H     1   SOL   0.5897
3039   HW2  10.8300  21.1600  30.6500 H     1   SOL   0.5897
3040    MW  11.5500  21.5600  30.3800 M     1   SOL  -1.1794
3041    OW  12.2100  17.5400  28.4800 O     1   SOL   0.0000
3042   HW1  11.2700  17.5400  28.6400 H     1   SOL   0.5897
3043   HW2  12.5300  18.3200  28.9500 H     1   SOL   0.5897
3044    MW  12.1300  17.6500  28.5700 M     1   SOL  -1.1794
3045    OW   8.1800  13.4500  32.5800 O     1   SOL   0.0000
3046   HW1   7.5100  14.0700  32.8800 H     1   SOL   0.5897
3047   HW2   7.7500  12.6000  32.6100 H     1   SOL   0.5897
3048    MW   8.0300  13.4200  32.6200 M     1   SOL  -1.1794
3049    OW  17.2700  23.7100  60.9400 O     1   SOL   0.0000
3050   HW1  16.3800  23.3600  60.9400 H     1   SOL   0.5897
3051   HW2  17.5700  23.5900  60.0400 H     1   SOL   0.5897
3052    MW  17.1900  23.6500  60.8200 M     1   SOL  -1.1794
3053    OW   6.9800   4.0800  68.2500 O     1   SOL   0.0000
3054   HW1   7.5200   4.6600  67.7100 H     1   SOL   0.5897
3055   HW2   7.3300   3.2100  68.0700 H     1   SOL   0.5897
3056    MW   7.1000   4.0400  68.1500 M     1   SOL  -1.1794
3057    OW  22.3800  14.5300  32.4400 O     1   SOL   0.0000
3058   HW1  21.8200  13.8100  32.7400 H     1   SOL   0.5897
3059   HW2  21.7800  15.1800  32.0800 H     1   SOL   0.5897
3060    MW  22.2300  14.5200  32.4300 M     1   SOL  -1.1794
3061    OW   8.9600   3.5000  38.5900 O     1   SOL   0.0000
3062   HW1   9.5100   2.7200  38.5300 H     1   SOL   0.5897
3063   HW2   8.8300   3.7900  37.6900 H     1   SOL   0.5897
3064    MW   9.0200   3.4400  38.4600 M     1   SOL  -1.1794
3065    OW  23.7000  13.5700  47.0900 O     1   SOL   0.0000
3066   HW1  23.0200  13.1400  46.5500 H     1   SOL   0.5897
3067   HW2  24.5200  13.2600  46.7200 H     1   SOL   0.5897
3068    MW  23.7200  13.4700  46.9700 M     1   SOL  -1.1794
3069    OW  21.1800  20.6800  56.5600 O     1   SOL   0.0000
3070   HW1  20.6700  21.4400  56.8500 H     1   SOL   0.5897
3071   HW2  20.8000  20.4400  55.7200 H     1   SOL   0.5897
3072    MW  21.0600  20.7500  56.4900 M     1   SOL  -1.1794
3073    OW  10.3000   4.1600  56.3100 O     1   SOL   0.0000
3074   HW1  11.1300   4.0900  55.8300 H     1   SOL   0.5897
3075   HW2   9.9400   5.0100  56.0400 H     1   SOL   0.5897
3076    MW  10.3700   4.2700  56.2100 M     1   SOL  -1.1794
3077    OW   7.7700  23.1700  66.1000 O     1   SOL   0.0000
3078   HW1   8.0100  22.5300  66.7800 H     1   SOL   0.5897
3079   HW2   7.2700  23.8400  66.5700 H     1   SOL   0.5897
3080    MW   7.7300  23.1700  66.2500 M     1   SOL  -1.1794
3081    OW  20.5600   1.8900  73.9000 O     1   SOL   0.0000
3082   HW1  20.8000   1.2700  73.2100 H     1   SOL   0.5897
3083   HW2  20.7900   1.4500  74.7100 H     1   SOL   0.5897
3084    MW  20.6200   1.7500  73.9200 M     1   SOL  -1.1794
3085    OW   9.5000   6.9400  25.0800 O     1   SOL   0.0000
3086   HW1  10.1900   7.6000  25.1500 H     1   SOL   0.5897
3087   HW2   9.3100   6.8900  24.1500 H     1   SOL   0.5897
3088    MW   9.5700   7.0200  24.9700 M     1   SOL  -1.1794
3089    OW  13.8700  20.7800  69.1800 O     1   SOL   0.0000
3090   HW1  13.6700  20.4900  70.0600 H     1   SOL   0.5897
3091   HW2  14.5400  20.1800  68.8600 H     1   SOL   0.5897
3092    MW  13.9300  20.6600  69.2500 M     1   SOL  -1.1794
3093    OW  21.5100  18.4500  58.0100 O     1   SOL   0.0000
3094   HW1  20.9200  17.7500  57.7300 H     1   SOL   0.5897
3095   HW2  21.1400  19.2500  57.6400 H     1   SOL   0.5897
3096    MW  21.3800  18.4600  57.9200 M     1   SOL  -1.1794
3097    OW  14.3000  23.9100  45.2000 O     1   SOL   0.0000
3098   HW1  14.6800  24.6800  44.7900 H     1   SOL   0.5897
3099   HW2  14.1600  24.1600  46.1100 H     1   SOL   0.5897
3100    MW  14.3300  24.0500  45.2700 M     1   SOL  -1.1794
3101    OW   1.4400  18.9800  48.2400 O     1   SOL   0.0000
3102   HW1   0.6700  18.4200  48.2300 H     1   SOL   0.5897
3103   HW2   1.1800  19.7600  47.7400 H     1   SOL   0.5897
3104    MW   1.3000  19.0100  48.1700 M     1   SOL  -1.1794
3105    OW   7.8800  15.5700  48.4800 O     1   SOL   0.0000
3106   HW1   8.5900  16.2100  48.4700 H     1   SOL   0.5897
3107   HW2   8.3100  14.7300  48.3300 H     1   SOL   0.5897
3108    MW   8.0300  15.5400  48.4600 M     1   SOL  -1.1794
3109    OW  22.7100  16.1800  40.3800 O     1   SOL   0.0000
3110   HW1  21.7900  16.1300  40.6700 H     1   SOL   0.5897
3111   HW2  22.7900  15.4800  39.7300 H     1   SOL   0.5897
3112    MW  22.6000  16.0800  40.3300 M     1   SOL  -1.1794
3113    OW   2.4400   4.3400  52.2900 O     1   SOL   0.0000
3114   HW1   3.2300   3.8000  52.3100 H     1   SOL   0.5897
3115   HW2   2.6600   5.0800  51.7300 H     1   SOL   0.5897
3116    MW   2.5700   4.3600  52.2200 M     1   SOL  -1.1794
3117    OW   5.8400  13.3800  73.4000 O     1   SOL   0.0000
3118   HW1   5.4600  13.2100  74.2600 H     1   SOL   0.5897
3119   HW2   6.7500  13.0900  73.4700 H     1   SOL   0.5897
3120    MW   5.9100  13.3200  73.5200 M     1   SOL  -1.1794
3121    OW   4.7700  18.2900  59.5500 O     1   SOL   0.0000
3122   HW1   4.4200  18.3100  58.6600 H     1   SOL   0.5897
3123   HW2   5.1600  19.1500  59.6700 H     1   SOL   0.5897
3124    MW   4.7800  18.4100  59.4500 M     1   SOL  -1.1794
3125    OW  19.4500   9.3800  59.6100 O     1   SOL   0.0000
3126   HW1  19.9900   8.5900  59.6400 H     1   SOL   0.5897
3127   HW2  18.6100   9.0800  59.2600 H     1   SOL   0.5897
3128    MW  19.4100   9.2400  59.5600 M     1   SOL  -1.1794
3129    OW   0.9600   7.8300  49.6100 O     1   SOL   0.0000
3130   HW1   0.0900   7.4300  49.5900 H     1   SOL   0.5897
3131   HW2   0.8600   8.6400  49.1000 H     1   SOL   0.5897
3132    MW   0.8300   7.8900  49.5400 M     1   SOL  -1.1794
3133    OW  18.1500   8.7500  49.2700 O     1   SOL   0.0000
3134   HW1  17.9300   8.1200  49.9600 H     1   SOL   0.5897
3135   HW2  18.4100   9.5400  49.7300 H     1   SOL   0.5897
3136    MW  18.1500   8.7700  49.4200 M     1   SOL  -1.1794
3137    OW   1.6900   2.6800  72.2600 O     1   SOL   0.0000
3138   HW1   0.9400   3.1500  71.9100 H     1   SOL   0.5897
3139   HW2   2.3700   2.7700  71.6000 H     1   SOL   0.5897
3140    MW   1.6800   2.7600  72.1300 M     1   SOL  -1.1794
3141    OW   2.1700   2.2400  42.5500 O     1   SOL   0.0000
3142   HW1   2.4500   1.3200  42.5600 H     1   SOL   0.5897
3143   HW2   2.6300   2.6300  41.8100 H     1   SOL   0.5897
3144    MW   2.2700   2.1700  42.4500 M     1   SOL  -1.1794
3145    OW  17.7700   6.3700  73.2000 O     1   SOL   0.0000
3146   HW1  17.0500   6.1400  73.7900 H     1   SOL   0.5897
3147   HW2  18.5300   6.4400  73.7700 H     1   SOL   0.5897
3148    MW  17.7700   6.3500  73.3600 M     1   SOL  -1.1794
3149    OW   1.9700  20.3200  50.7800 O     1   SOL   0.0000
3150   HW1   2.3900  19.8100  51.4700 H     1   SOL   0.5897
3151   HW2   1.7000  19.6700  50.1300 H     1   SOL   0.5897
3152    MW   1.9900  20.1700  50.7900 M     1   SOL  -1.1794
3153    OW  14.4600   1.9800  71.5300 O     1   SOL   0.0000
3154   HW1  14.3900   1.3500  70.8100 H     1   SOL   0.5897
3155   HW2  15.0000   2.6900  71.1700 H     1   SOL   0.5897
3156    MW  14.5200   1.9900  71.3800 M     1   SOL  -1.1794
3157    OW  18.7600   4.4700  70.3800 O     1   SOL   0.0000
3158   HW1  19.0800   5.3700  70.3900 H     1   SOL   0.5897
3159   HW2  18.7900   4.2000  71.3000 H     1   SOL   0.5897
3160    MW  18.8000   4.5500  70.5100 M     1   SOL  -1.1794
3161    OW  13.0700   8.6800  40.7800 O     1   SOL   0.0000
3162   HW1  13.8300   8.5100  40.2200 H     1   SOL   0.5897
3163   HW2  13.1800   9.5900  41.0600 H     1   SOL   0.5897
3164    MW  13.1900   8.7800  40.7400 M     1   SOL  -1.1794
3165    OW   9.7600  12.0100  34.2800 O     1   SOL   0.0000
3166   HW1   9.5200  12.6800  33.6400 H     1   SOL   0.5897
3167   HW2   9.1300  12.1300  34.9900 H     1   SOL   0.5897
3168    MW   9.6500  12.1200  34.2900 M     1   SOL  -1.1794
3169    OW  13.8400  12.8200  69.9300 O     1   SOL   0.0000
3170   HW1  14.3000  13.2700  69.2200 H     1   SOL   0.5897
3171   HW2  13.2400  13.4800  70.2700 H     1   SOL   0.5897
3172    MW  13.8200  12.9700  69.8800 M     1   SOL  -1.1794
3173    OW  10.6700  20.8000  44.0100 O     1   SOL   0.0000
3174   HW1  10.6800  21.4500  44.7200 H     1   SOL   0.5897
3175   HW2   9.7600  20.5000  43.9800 H     1   SOL   0.5897
3176    MW  10.5500  20.8500  44.1100 M     1   SOL  -1.1794
3177    OW   1.7700  19.3200  39.9200 O     1   SOL   0.0000
3178   HW1   2.2900  19.8400  39.3000 H     1   SOL   0.5897
3179   HW2   1.2400  18.7500  39.3600 H     1   SOL   0.5897
3180    MW   1.7700  19.3200  39.7600 M     1   SOL  -1.1794
3181    OW   4.5200   4.2900  66.6500 O     1   SOL   0.0000
3182   HW1   5.3600   4.2200  67.1100 H     1   SOL   0.5897
3183   HW2   4.6400   5.0200  66.0400 H     1   SOL   0.5897
3184    MW   4.6500   4.3800  66.6300 M     1   SOL  -1.1794
3185    OW  13.6000   5.7300  28.1900 O     1   SOL   0.0000
3186   HW1  12.7700   5.3500  27.8900 H     1   SOL   0.5897
3187   HW2  14.1500   4.9700  28.3900 H     1   SOL   0.5897
3188    MW  13.5600   5.5800  28.1800 M     1   SOL  -1.1794
3189    OW  22.3200  11.5600  31.0900 O     1   SOL   0.0000
3190   HW1  21.5600  11.6400  30.5100 H     1   SOL   0.5897
3191   HW2  21.9700  11.7100  31.9700 H     1   SOL   0.5897
3192    MW  22.1700  11.5900  31.1300 M     1   SOL  -1.1794
3193    OW  21.6800   3.3000  67.3200 O     1   SOL   0.0000
3194   HW1  21.1400   3.1100  68.0900 H     1   SOL   0.5897
3195   HW2  21.6200   4.2500  67.2200 H     1   SOL   0.5897
3196    MW  21.6000   3.4000  67.4100 M     1   SOL  -1.1794
3197    OW   8.4400  12.8300  73.2900 O     1   SOL   0.0000
3198   HW1   8.6000  12.7800  74.2400 H     1   SOL   0.5897
3199   HW2   8.6200  11.9500  72.9700 H     1   SOL   0.5897
3200    MW   8.4900  12.7100  73.3800 M     1   SOL  -1.1794
3201    OW   8.5500  21.1600  68.0400 O     1   SOL   0.0000
3202   HW1   8.8400  21.8400  68.6500 H     1   SOL   0.5897
3203   HW2   9.2900  21.0400  67.4400 H     1   SOL   0.5897
3204    MW   8.6900  21.2400  68.0400 M     1   SOL  -1.1794
3205    OW   7.9500   9.0900  36.3900 O     1   SOL   0.0000
3206   HW1   8.8200   8.6900  36.4400 H     1   SOL   0.5897
3207   HW2   7.5100   8.7900  37.1800 H     1   SOL   0.5897
3208    MW   8.0100   9.0000  36.5000 M     1   SOL  -1.1794
3209    OW   3.0800   5.9300  49.9100 O     1   SOL   0.0000
3210   HW1   2.6500   5.1500  49.5400 H     1   SOL   0.5897
3211   HW2   2.5800   6.6700  49.5500 H     1   SOL   0.5897
3212    MW   2.9500   5.9200  49.8100 M     1   SOL  -1.1794
3213    OW  20.9800  19.4100  64.3200 O     1   SOL   0.0000
3214   HW1  20.5600  18.9300  63.6000 H     1   SOL   0.5897
3215   HW2  20.7000  20.3200  64.1800 H     1   SOL   0.5897
3216    MW  20.8800  19.4700  64.2000 M     1   SOL  -1.1794
3217    OW  17.0300  16.0000  57.7000 O     1   SOL   0.0000
3218   HW1  17.0600  15.3700  56.9800 H     1   SOL   0.5897
3219   HW2  16.4000  16.6600  57.4200 H     1   SOL   0.5897
3220    MW  16.9500  16.0000  57.5700 M     1   SOL  -1.1794
3221    OW  18.2100  14.9300  36.9200 O     1   SOL   0.0000
3222   HW1  18.6500  14.1500  37.2400 H     1   SOL   0.5897
3223   HW2  17.5000  15.0800  37.5400 H     1   SOL   0.5897
3224    MW  18.1700  14.8500  37.0400 M     1   SOL  -1.1794
3225    OW  18.8800  19.2300  40.9200 O     1   SOL   0.0000
3226   HW1  19.5300  19.5900  40.3100 H     1   SOL   0.5897
3227   HW2  18.9000  19.8100  41.6800 H     1   SOL   0.5897
3228    MW  18.9700  19.3600  40.9400 M     1   SOL  -1.1794
3229    OW  17.8900  20.5600  58.8200 O     1   SOL   0.0000
3230   HW1  17.9400  21.4800  58.5400 H     1   SOL   0.5897
3231   HW2  16.9600  20.3600  58.8200 H     1   SOL   0.5897
3232    MW  17.7700  20.6600  58.7800 M     1   SOL  -1.1794
3233    OW  13.9700   4.7700  64.5500 O     1   SOL   0.0000
3234   HW1  14.9200   4.6100  64.6300 H     1   SOL   0.5897
3235   HW2  13.7500   4.4500  63.6700 H     1   SOL   0.5897
3236    MW  14.0700   4.7000  64.4400 M     1   SOL  -1.1794
3237    OW  16.0400  18.8900  68.6000 O     1   SOL   0.0000
3238   HW1  15.6300  18.0400  68.8000 H     1   SOL   0.5897
3239   HW2  16.8400  18.6600  68.1300 H     1   SOL   0.5897
3240    MW  16.0900  18.7400  68.5600 M     1   SOL  -1.1794
3241    OW  16.9200   1.6500  32.8100 O     1   SOL   0.0000
3242   HW1  16.4000   2.1600  32.1900 H     1   SOL   0.5897
3243   HW2  17.8000   1.6400  32.4300 H     1   SOL   0.5897
3244    MW  16.9700   1.7200  32.6800 M     1   SOL  -1.1794
3245    OW  15.0300  20.5900  62.5200 O     1   SOL   0.0000
3246   HW1  14.6200  20.5100  63.3800 H     1   SOL   0.5897
3247   HW2  15.9600  20.6900  62.7100 H     1   SOL   0.5897
3248    MW  15.1000  20.5900  62.6600 M     1   SOL  -1.1794
3249    OW   3.7200   2.3100  70.4300 O     1   SOL   0.0000
3250   HW1   4.4700   2.8400  70.7100 H     1   SOL   0.5897
3251   HW2   3.3900   2.7600  69.6500 H     1   SOL   0.5897
3252    MW   3.7700   2.4500  70.3700 M     1   SOL  -1.1794
3253    OW   4.1100  23.1600  36.9200 O     1   SOL   0.0000
3254   HW1   3.7600  22.4700  37.4800 H     1   SOL   0.5897
3255   HW2   3.3700  23.4200  36.3700 H     1   SOL   0.5897
3256    MW   3.9600  23.1000  36.9200 M     1   SOL  -1.1794
3257    OW   7.1300   5.8500  64.0800 O     1   SOL   0.0000
3258   HW1   7.6400   6.4900  63.5800 H     1   SOL   0.5897
3259   HW2   7.4800   5.9200  64.9700 H     1   SOL   0.5897
3260    MW   7.2500   5.9500  64.1400 M     1   SOL  -1.1794
3261    OW  19.2300   1.9400  31.2100 O     1   SOL   0.0000
3262   HW1  20.1700   2.0400  31.3000 H     1   SOL   0.5897
3263   HW2  18.9800   2.6100  30.5700 H     1   SOL   0.5897
3264    MW  19.3200   2.0500  31.1300 M     1   SOL  -1.1794
3265    OW   9.0600  10.5400  42.4600 O     1   SOL   0.0000
3266   HW1   8.5400  11.3400  42.5000 H     1   SOL   0.5897
3267   HW2   8.9900  10.2500  41.5500 H     1   SOL   0.5897
3268    MW   8.9800  10.6100  42.3400 M     1   SOL  -1.1794
3269    OW  20.3100  10.0200  65.6900 O     1   SOL   0.0000
3270   HW1  19.6700  10.7300  65.5900 H     1   SOL   0.5897
3271   HW2  20.9400  10.3500  66.3200 H     1   SOL   0.5897
3272    MW  20.3100  10.1600  65.7600 M     1   SOL  -1.1794
3273    OW  14.9100   8.4000  66.0600 O     1   SOL   0.0000
3274   HW1  14.2900   8.7200  66.7100 H     1   SOL   0.5897
3275   HW2  14.3600   8.0300  65.3700 H     1   SOL   0.5897
3276    MW  14.7500   8.3900  66.0500 M     1   SOL  -1.1794
3277    OW   7.3200   2.5700  43.0100 O     1   SOL   0.0000
3278   HW1   6.7900   2.1300  43.6700 H     1   SOL   0.5897
3279   HW2   7.6600   1.8600  42.4700 H     1   SOL   0.5897
3280    MW   7.3000   2.4200  43.0300 M     1   SOL  -1.1794
3281    OW   6.5200  11.7700  62.5400 O     1   SOL   0.0000
3282   HW1   6.9500  11.3300  61.8100 H     1   SOL   0.5897
3283   HW2   6.6900  12.7000  62.4000 H     1   SOL   0.5897
3284    MW   6.6000  11.8300  62.4200 M     1   SOL  -1.1794
3285    OW   6.4700  11.7400  48.7100 O     1   SOL   0.0000
3286   HW1   6.8200  11.3200  49.5000 H     1   SOL   0.5897
3287   HW2   7.2200  12.2000  48.3400 H     1   SOL   0.5897
3288    MW   6.6200  11.7500  48.7700 M     1   SOL  -1.1794
3289    OW   0.0600   0.6900  52.8900 O     1   SOL   0.0000
3290   HW1   0.1100  -0.2200  53.1700 H     1   SOL   0.5897
3291   HW2  -0.6700   0.7000  52.2700 H     1   SOL   0.5897
3292    MW  -0.0400   0.5700  52.8400 M     1   SOL  -1.1794
3293    OW  22.5600  17.7300  60.4300 O     1   SOL   0.0000
3294   HW1  22.1300  18.0600  59.6400 H     1   SOL   0.5897
3295   HW2  23.1300  17.0300  60.1100 H     1   SOL   0.5897
3296    MW  22.5800  17.6800  60.2800 M     1   SOL  -1.1794
3297    OW  11.7000  20.9000  39.2600 O     1   SOL   0.0000
3298   HW1  11.4300  21.6800  38.7700 H     1   SOL   0.5897
3299   HW2  12.3900  21.2200  39.8500 H     1   SOL   0.5897
3300    MW  11.7600  21.0500  39.2700 M     1   SOL  -1.1794
3301    OW   6.4900   2.7600  61.2400 O     1   SOL   0.0000
3302   HW1   5.5900   3.0100  61.0400 H     1   SOL   0.5897
3303   HW2   6.7600   2.2200  60.5000 H     1   SOL   0.5897
3304    MW   6.4100   2.7200  61.1100 M     1   SOL  -1.1794
3305    OW   6.8600  11.7200  57.2300 O     1   SOL   0.0000
3306   HW1   6.5500  12.6000  57.4300 H     1   SOL   0.5897
3307   HW2   6.5800  11.5700  56.3200 H     1   SOL   0.5897
3308    MW   6.7800  11.8100  57.1300 M     1   SOL  -1.1794
3309    OW  19.1400   3.1000  45.1800 O     1   SOL   0.0000
3310   HW1  19.3300   2.8000  46.0700 H     1   SOL   0.5897
3311   HW2  18.8400   4.0000  45.2900 H     1   SOL   0.5897
3312    MW  19.1300   3.1800  45.3100 M     1   SOL  -1.1794
3313    OW  19.9700   2.4600  61.2800 O     1   SOL   0.0000
3314   HW1  20.1400   1.9700  60.4700 H     1   SOL   0.5897
3315   HW2  20.2300   1.8600  61.9800 H     1   SOL   0.5897
3316    MW  20.0200   2.3100  61.2600 M     1   SOL  -1.1794
3317    OW   5.5400  13.2700  26.2300 O     1   SOL   0.0000
3318   HW1   4.8300  12.7300  26.5600 H     1   SOL   0.5897
3319   HW2   5.3900  14.1300  26.6200 H     1   SOL   0.5897
3320    MW   5.4300  13.3200  26.3200 M     1   SOL  -1.1794
3321    OW  15.8700   2.0100  73.8500 O     1   SOL   0.0000
3322   HW1  15.2500   1.8400  73.1400 H     1   SOL   0.5897
3323   HW2  15.5600   2.8200  74.2500 H     1   SOL   0.5897
3324    MW  15.7500   2.0900  73.8100 M     1   SOL  -1.1794
3325    OW  23.0400   8.3500  60.9300 O     1   SOL   0.0000
3326   HW1  22.7200   9.2400  60.7700 H     1   SOL   0.5897
3327   HW2  22.9500   8.2300  61.8800 H     1   SOL   0.5897
3328    MW  22.9800   8.4500  61.0400 M     1   SOL  -1.1794
3329    OW  16.8200   7.7500  70.9000 O     1   SOL   0.0000
3330   HW1  17.1500   7.2800  71.6700 H     1   SOL   0.5897
3331   HW2  16.4000   7.0700  70.3700 H     1   SOL   0.5897
3332    MW  16.8100   7.6000  70.9400 M     1   SOL  -1.1794
3333    OW   8.3300   2.2800  57.3700 O     1   SOL   0.0000
3334   HW1   8.8300   1.4800  57.5100 H     1   SOL   0.5897
3335   HW2   8.9800   2.9300  57.1200 H     1   SOL   0.5897
3336    MW   8.4800   2.2600  57.3500 M     1   SOL  -1.1794
3337    OW  22.7700   5.0300  39.3100 O     1   SOL   0.0000
3338   HW1  22.9700   5.8000  39.8500 H     1   SOL   0.5897
3339   HW2  22.4400   4.3800  39.9400 H     1   SOL   0.5897
3340    MW  22.7500   5.0500  39.4700 M     1   SOL  -1.1794
3341    OW   9.1700   1.0800  41.0300 O     1   SOL   0.0000
3342   HW1   9.7800   1.6700  41.4800 H     1   SOL   0.5897
3343   HW2   9.2900   0.2400  41.4600 H     1   SOL   0.5897
3344    MW   9.2700   1.0500  41.1500 M     1   SOL  -1.1794
3345    OW  15.6800   4.2900  59.1200 O     1   SOL   0.0000
3346   HW1  15.9600   3.7200  59.8300 H     1   SOL   0.5897
3347   HW2  16.4800   4.7300  58.8300 H     1   SOL   0.5897
3348    MW  15.8200   4.2700  59.1800 M     1   SOL  -1.1794
3349    OW  22.7700  13.7300  59.2400 O     1   SOL   0.0000
3350   HW1  22.5900  12.8200  59.0100 H     1   SOL   0.5897
3351   HW2  23.5400  13.6900  59.8100 H     1   SOL   0.5897
3352    MW  22.8500  13.6000  59.2900 M     1   SOL  -1.1794
3353    OW  12.0400   3.0300  72.6800 O     1   SOL   0.0000
3354   HW1  12.8500   2.5600  72.4900 H     1   SOL   0.5897
3355   HW2  11.3500   2.3800  72.5700 H     1   SOL   0.5897
3356    MW  12.0500   2.8800  72.6400 M     1   SOL  -1.1794
3357    OW   2.5100   0.3400  64.9500 O     1   SOL   0.0000
3358   HW1   3.0500   1.1400  64.9300 H     1   SOL   0.5897
3359   HW2   2.9200  -0.2400  64.3000 H     1   SOL   0.5897
3360    MW   2.6400   0.3700  64.8600 M     1   SOL  -1.1794
3361    OW  14.0500   5.9900  32.4600 O     1   SOL   0.0000
3362   HW1  13.5000   6.4800  31.8500 H     1   SOL   0.5897
3363   HW2  14.4100   5.2700  31.9400 H     1   SOL   0.5897
3364    MW  14.0200   5.9600  32.3100 M     1   SOL  -1.1794
3365    OW  18.8900   9.4000  69.5400 O     1   SOL   0.0000
3366   HW1  18.9300   9.0000  68.6700 H     1   SOL   0.5897
3367   HW2  18.1500   8.9700  69.9700 H     1   SOL   0.5897
3368    MW  18.8000   9.2900  69.4800 M     1   SOL  -1.1794
3369    OW   4.5600  17.5700  66.3300 O     1   SOL   0.0000
3370   HW1   5.1000  18.0600  65.7200 H     1   SOL   0.5897
3371   HW2   3.7400  18.0500  66.3700 H     1   SOL   0.5897
3372    MW   4.5300  17.7000  66.2500 M     1   SOL  -1.1794
3373    OW  10.3800   8.0500  33.0200 O     1   SOL   0.0000
3374   HW1   9.4800   8.0100  32.7000 H     1   SOL   0.5897
3375   HW2  10.4800   7.2600  33.5500 H     1   SOL   0.5897
3376    MW  10.2700   7.9400  33.0500 M     1   SOL  -1.1794
3377    OW  21.2600  21.2100  32.0300 O     1   SOL   0.0000
3378   HW1  20.8300  21.4500  32.8500 H     1   SOL   0.5897
3379   HW2  22.0700  20.7800  32.3000 H     1   SOL   0.5897
3380    MW  21.3100  21.1800  32.1800 M     1   SOL  -1.1794
3381    OW  20.3800  16.6600  38.0300 O     1   SOL   0.0000
3382   HW1  19.5300  16.5300  37.6100 H     1   SOL   0.5897
3383   HW2  20.1800  16.8800  38.9400 H     1   SOL   0.5897
3384    MW  20.2400  16.6700  38.1000 M     1   SOL  -1.1794
3385    OW  18.4300   4.4300  53.2000 O     1   SOL   0.0000
3386   HW1  18.1600   4.4700  52.2800 H     1   SOL   0.5897
3387   HW2  19.2900   4.8600  53.2200 H     1   SOL   0.5897
3388    MW  18.5100   4.4900  53.0800 M     1   SOL  -1.1794
3389    OW   0.5400  10.5000  48.4700 O     1   SOL   0.0000
3390   HW1   1.2400  10.7200  47.8600 H     1   SOL   0.5897
3391   HW2   0.5200  11.2300  49.0900 H     1   SOL   0.5897
3392    MW   0.6300  10.6300  48.4700 M     1   SOL  -1.1794
3393    OW  19.6200  20.9800  43.0900 O     1   SOL   0.0000
3394   HW1  18.9900  21.6900  42.9500 H     1   SOL   0.5897
3395   HW2  20.3600  21.4100  43.5200 H     1   SOL   0.5897
3396    MW  19.6300  21.1300  43.1300 M     1   SOL  -1.1794
3397    OW  11.4500  11.1600  43.7400 O     1   SOL   0.0000
3398   HW1  10.6700  10.9600  43.2200 H     1   SOL   0.5897
3399   HW2  12.1500  11.2600  43.0900 H     1   SOL   0.5897
3400    MW  11.4400  11.1500  43.5800 M     1   SOL  -1.1794
3401    OW  15.3900   2.0400  67.6600 O     1   SOL   0.0000
3402   HW1  14.6100   2.5400  67.3900 H     1   SOL   0.5897
3403   HW2  15.0700   1.4200  68.3200 H     1   SOL   0.5897
3404    MW  15.2400   2.0300  67.7100 M     1   SOL  -1.1794
3405    OW  11.7000   4.8500  41.9800 O     1   SOL   0.0000
3406   HW1  11.4600   4.0400  42.4300 H     1   SOL   0.5897
3407   HW2  11.3500   4.7500  41.0900 H     1   SOL   0.5897
3408    MW  11.6200   4.7300  41.9200 M     1   SOL  -1.1794
3409    OW  17.1100   5.5700  39.5800 O     1   SOL   0.0000
3410   HW1  17.8600   5.5300  40.1800 H     1   SOL   0.5897
3411   HW2  17.5100   5.6300  38.7100 H     1   SOL   0.5897
3412    MW  17.2700   5.5700  39.5400 M     1   SOL  -1.1794
3413    OW  22.0500  14.5200  38.2500 O     1   SOL   0.0000
3414   HW1  22.6600  14.3500  37.5300 H     1   SOL   0.5897
3415   HW2  21.4900  15.2300  37.9300 H     1   SOL   0.5897
3416    MW  22.0500  14.6000  38.1100 M     1   SOL  -1.1794
3417    OW   8.1600  12.7400  25.9000 O     1   SOL   0.0000
3418   HW1   8.6000  13.2700  26.5600 H     1   SOL   0.5897
3419   HW2   7.2400  13.0200  25.9400 H     1   SOL   0.5897
3420    MW   8.0900  12.8500  25.9900 M     1   SOL  -1.1794
3421    OW   1.3800  23.8500  31.1100 O     1   SOL   0.0000
3422   HW1   0.5000  23.5800  30.8700 H     1   SOL   0.5897
3423   HW2   1.2700  24.6700  31.5800 H     1   SOL   0.5897
3424    MW   1.2500  23.9200  31.1400 M     1   SOL  -1.1794
3425    OW  15.9800  17.3300  64.4200 O     1   SOL   0.0000
3426   HW1  15.6500  18.1100  64.8600 H     1   SOL   0.5897
3427   HW2  16.4100  16.8300  65.1100 H     1   SOL   0.5897
3428    MW  15.9900  17.3700  64.5700 M     1   SOL  -1.1794
3429    OW  17.8900   2.4700  66.4900 O     1   SOL   0.0000
3430   HW1  17.0500   2.2500  66.8900 H     1   SOL   0.5897
3431   HW2  18.4600   2.6600  67.2300 H     1   SOL   0.5897
3432    MW  17.8500   2.4700  66.6400 M     1   SOL  -1.1794
3433    OW  20.0400  11.5800  56.5600 O     1   SOL   0.0000
3434   HW1  19.6700  12.0100  57.3300 H     1   SOL   0.5897
3435   HW2  20.3500  10.7300  56.8900 H     1   SOL   0.5897
3436    MW  20.0300  11.5200  56.7100 M     1   SOL  -1.1794
3437    OW  10.9800   0.4100  31.2300 O     1   SOL   0.0000
3438   HW1  10.9800  -0.5200  31.0400 H     1   SOL   0.5897
3439   HW2  10.1600   0.5600  31.7000 H     1   SOL   0.5897
3440    MW  10.8700   0.3100  31.2700 M     1   SOL  -1.1794
3441    OW  14.3400  20.0000  65.2500 O     1   SOL   0.0000
3442   HW1  14.3400  20.7100  65.8900 H     1   SOL   0.5897
3443   HW2  13.7700  19.3300  65.6400 H     1   SOL   0.5897
3444    MW  14.2600  20.0100  65.3900 M     1   SOL  -1.1794
3445    OW  12.8700  15.4000  61.6400 O     1   SOL   0.0000
3446   HW1  13.2500  15.1800  60.7900 H     1   SOL   0.5897
3447   HW2  13.5900  15.3000  62.2600 H     1   SOL   0.5897
3448    MW  13.0200  15.3600  61.6100 M     1   SOL  -1.1794
3449    OW  23.2900  23.5900  57.3400 O     1   SOL   0.0000
3450   HW1  23.4600  24.3100  57.9400 H     1   SOL   0.5897
3451   HW2  23.6600  23.8800  56.5000 H     1   SOL   0.5897
3452    MW  23.3600  23.7200  57.3100 M     1   SOL  -1.1794
3453    OW  17.6700   9.1600  63.3100 O     1   SOL   0.0000
3454   HW1  17.3400   8.6400  62.5800 H     1   SOL   0.5897
3455   HW2  16.8800   9.5500  63.6900 H     1   SOL   0.5897
3456    MW  17.5200   9.1400  63.2600 M     1   SOL  -1.1794
3457    OW  20.4700   1.7800  58.6700 O     1   SOL   0.0000
3458   HW1  21.3700   1.8400  58.9700 H     1   SOL   0.5897
3459   HW2  20.4500   1.0000  58.1100 H     1   SOL   0.5897
3460    MW  20.5900   1.6800  58.6300 M     1   SOL  -1.1794
3461    OW   0.2100   0.3500  63.0500 O     1   SOL   0.0000
3462   HW1  -0.0400  -0.5600  62.8700 H     1   SOL   0.5897
3463   HW2   0.9100   0.2800  63.7000 H     1   SOL   0.5897
3464    MW   0.2700   0.2100  63.1100 M     1   SOL  -1.1794
3465    OW   2.8400  11.7100  30.9800 O     1   SOL   0.0000
3466   HW1   3.7600  11.6900  30.6800 H     1   SOL   0.5897
3467   HW2   2.4000  12.2600  30.3400 H     1   SOL   0.5897
3468    MW   2.9100  11.7800  30.8500 M     1   SOL  -1.1794
3469    OW   5.2700   4.8700  55.7700 O     1   SOL   0.0000
3470   HW1   4.3700   4.7500  55.4600 H     1   SOL   0.5897
3471   HW2   5.1800   5.0900  56.7000 H     1   SOL   0.5897
3472    MW   5.1400   4.8900  55.8500 M     1   SOL  -1.1794
3473    OW  19.1400   3.0500  41.1500 O     1   SOL   0.0000
3474   HW1  19.0300   3.9900  41.2700 H     1   SOL   0.5897
3475   HW2  20.0900   2.9200  41.0900 H     1   SOL   0.5897
3476    MW  19.2500   3.1600  41.1600 M     1   SOL  -1.1794
3477    OW  16.0700  15.6900  38.6400 O     1   SOL   0.0000
3478   HW1  15.4000  16.1100  39.1900 H     1   SOL   0.5897
3479   HW2  15.7000  15.7300  37.7600 H     1   SOL   0.5897
3480    MW  15.9300  15.7500  38.6000 M     1   SOL  -1.1794
3481    OW   0.7800   1.9200  32.8500 O     1   SOL   0.0000
3482   HW1  -0.1000   1.7900  32.5000 H     1   SOL   0.5897
3483   HW2   0.6800   1.8200  33.7900 H     1   SOL   0.5897
3484    MW   0.6500   1.8900  32.9300 M     1   SOL  -1.1794
3485    OW   0.5000  12.7200  66.1500 O     1   SOL   0.0000
3486   HW1   0.0700  12.3100  65.4000 H     1   SOL   0.5897
3487   HW2   1.4100  12.8000  65.8900 H     1   SOL   0.5897
3488    MW   0.5600  12.6800  66.0200 M     1   SOL  -1.1794
3489    OW  15.8400  10.6200  64.8700 O     1   SOL   0.0000
3490   HW1  15.4900   9.8700  65.3400 H     1   SOL   0.5897
3491   HW2  15.0800  11.1600  64.6600 H     1   SOL   0.5897
3492    MW  15.6900  10.5900  64.9000 M     1   SOL  -1.1794
3493    OW   0.8200  20.7700  70.1800 O     1   SOL   0.0000
3494   HW1   0.7700  20.0200  69.5900 H     1   SOL   0.5897
3495   HW2   1.4900  20.5300  70.8100 H     1   SOL   0.5897
3496    MW   0.9000  20.6300  70.1900 M     1   SOL  -1.1794
3497    OW  11.8400  12.0000  39.3500 O     1   SOL   0.0000
3498   HW1  11.8300  12.9100  39.0500 H     1   SOL   0.5897
3499   HW2  12.1300  11.5000  38.5800 H     1   SOL   0.5897
3500    MW  11.8800  12.0600  39.2000 M     1   SOL  -1.1794
3501    OW  17.7000   5.6500  57.9200 O     1   SOL   0.0000
3502   HW1  17.5400   6.5200  58.2800 H     1   SOL   0.5897
3503   HW2  17.3300   5.6900  57.0300 H     1   SOL   0.5897
3504    MW  17.6300   5.7700  57.8500 M     1   SOL  -1.1794
3505    OW  10.8100   9.7700  67.0700 O     1   SOL   0.0000
3506   HW1  10.2100   9.1900  67.5400 H     1   SOL   0.5897
3507   HW2  11.6800   9.4400  67.2900 H     1   SOL   0.5897
3508    MW  10.8500   9.6500  67.1600 M     1   SOL  -1.1794
3509    OW   5.3400  21.9700  30.3600 O     1   SOL   0.0000
3510   HW1   4.7600  22.5800  29.9000 H     1   SOL   0.5897
3511   HW2   5.7200  21.4400  29.6600 H     1   SOL   0.5897
3512    MW   5.3100  21.9800  30.2000 M     1   SOL  -1.1794
3513    OW   1.9600  15.5600  72.1600 O     1   SOL   0.0000
3514   HW1   2.2500  14.6500  72.2200 H     1   SOL   0.5897
3515   HW2   1.0200  15.5200  72.3800 H     1   SOL   0.5897
3516    MW   1.8700  15.4300  72.2000 M     1   SOL  -1.1794
3517    OW   8.9900  18.6500  60.8700 O     1   SOL   0.0000
3518   HW1   8.6700  18.5100  59.9800 H     1   SOL   0.5897
3519   HW2   8.5200  18.0000  61.4000 H     1   SOL   0.5897
3520    MW   8.8800  18.5400  60.8200 M     1   SOL  -1.1794
3521    OW   6.6700  23.0100  71.4700 O     1   SOL   0.0000
3522   HW1   6.4000  22.0900  71.5200 H     1   SOL   0.5897
3523   HW2   6.1200  23.3800  70.7800 H     1   SOL   0.5897
3524    MW   6.5600  22.9300  71.3900 M     1   SOL  -1.1794
3525    OW  17.3800   7.4400  51.4400 O     1   SOL   0.0000
3526   HW1  17.4300   8.1400  52.0900 H     1   SOL   0.5897
3527   HW2  16.4500   7.2000  51.4200 H     1   SOL   0.5897
3528    MW  17.2600   7.5000  51.5200 M     1   SOL  -1.1794
3529    OW   4.7900  15.6800  41.8600 O     1   SOL   0.0000
3530   HW1   4.9200  16.5700  42.1800 H     1   SOL   0.5897
3531   HW2   4.7300  15.1400  42.6400 H     1   SOL   0.5897
3532    MW   4.8000  15.7200  42.0100 M     1   SOL  -1.1794
3533    OW  21.0600  12.4600  33.5000 O     1   SOL   0.0000
3534   HW1  20.2200  12.9200  33.4800 H     1   SOL   0.5897
3535   HW2  21.1200  12.1100  34.3900 H     1   SOL   0.5897
3536    MW  20.9600  12.4800  33.6200 M     1   SOL  -1.1794
3537    OW  22.4100   6.4100  25.2600 O     1   SOL   0.0000
3538   HW1  21.8400   6.6400  24.5200 H     1   SOL   0.5897
3539   HW2  22.6100   5.4900  25.1300 H     1   SOL   0.5897
3540    MW  22.3600   6.3200  25.1400 M     1   SOL  -1.1794
3541    OW  16.9000   1.5300  51.6800 O     1   SOL   0.0000
3542   HW1  16.9200   2.4900  51.6800 H     1   SOL   0.5897
3543   HW2  16.0300   1.3100  51.3500 H     1   SOL   0.5897
3544    MW  16.7900   1.6300  51.6300 M     1   SOL  -1.1794
3545    OW  21.4200   8.4300  71.0300 O     1   SOL   0.0000
3546   HW1  20.6200   8.6200  70.5500 H     1   SOL   0.5897
3547   HW2  21.5600   7.4900  70.9000 H     1   SOL   0.5897
3548    MW  21.3300   8.3300  70.9500 M     1   SOL  -1.1794
3549    OW  17.3600  20.7800  29.6300 O     1   SOL   0.0000
3550   HW1  17.4200  20.4000  30.5100 H     1   SOL   0.5897
3551   HW2  17.6900  21.6700  29.7200 H     1   SOL   0.5897
3552    MW  17.4100  20.8500  29.7600 M     1   SOL  -1.1794
3553    OW  10.9000   7.6400  39.5100 O     1   SOL   0.0000
3554   HW1  11.7100   7.9000  39.9600 H     1   SOL   0.5897
3555   HW2  10.9400   6.6900  39.4800 H     1   SOL   0.5897
3556    MW  11.0200   7.5500  39.5600 M     1   SOL  -1.1794
3557    OW   3.2600  12.9800  72.0200 O     1   SOL   0.0000
3558   HW1   4.1500  13.1100  72.3700 H     1   SOL   0.5897
3559   HW2   3.3900  12.5100  71.1900 H     1   SOL   0.5897
3560    MW   3.4000  12.9300  71.9600 M     1   SOL  -1.1794
3561    OW   7.8100  23.3400  30.1900 O     1   SOL   0.0000
3562   HW1   6.8700  23.1500  30.1700 H     1   SOL   0.5897
3563   HW2   7.9300  23.9000  30.9500 H     1   SOL   0.5897
3564    MW   7.7000  23.3900  30.2900 M     1   SOL  -1.1794
3565    OW   7.1100   1.1700  67.8500 O     1   SOL   0.0000
3566   HW1   7.9300   0.7600  68.1500 H     1   SOL   0.5897
3567   HW2   6.4200   0.6700  68.2800 H     1   SOL   0.5897
3568    MW   7.1300   1.0500  67.9500 M     1   SOL  -1.1794
3569    OW   6.6400  20.7900  28.2000 O     1   SOL   0.0000
3570   HW1   7.3200  21.3600  27.8400 H     1   SOL   0.5897
3571   HW2   5.9200  20.8600  27.5700 H     1   SOL   0.5897
3572    MW   6.6300  20.8800  28.0600 M     1   SOL  -1.1794
3573    OW   5.5200  19.8800  36.6900 O     1   SOL   0.0000
3574   HW1   5.3600  20.5400  36.0100 H     1   SOL   0.5897
3575   HW2   5.2700  19.0500  36.2900 H     1   SOL   0.5897
3576    MW   5.4600  19.8600  36.5500 M     1   SOL  -1.1794
3577    OW   9.8200   9.9300  53.6000 O     1   SOL   0.0000
3578   HW1   9.1700  10.5900  53.8400 H     1   SOL   0.5897
3579   HW2  10.0600   9.5100  54.4200 H     1   SOL   0.5897
3580    MW   9.7600   9.9600  53.7400 M     1   SOL  -1.1794
3581    OW  22.3700   6.4200  49.6800 O     1   SOL   0.0000
3582   HW1  21.9200   6.6200  50.5000 H     1   SOL   0.5897
3583   HW2  21.8300   6.8300  49.0000 H     1   SOL   0.5897
3584    MW  22.2400   6.5000  49.7000 M     1   SOL  -1.1794
3585    OW   7.5200  20.8400  38.2700 O     1   SOL   0.0000
3586   HW1   6.9000  20.5300  37.6100 H     1   SOL   0.5897
3587   HW2   7.2100  21.7200  38.5000 H     1   SOL   0.5897
3588    MW   7.3900  20.9200  38.2100 M     1   SOL  -1.1794
3589    OW   3.6800   2.9400  61.9900 O     1   SOL   0.0000
3590   HW1   3.0700   3.6100  62.2900 H     1   SOL   0.5897
3591   HW2   4.0700   2.5800  62.7900 H     1   SOL   0.5897
3592    MW   3.6500   2.9800  62.1400 M     1   SOL  -1.1794
3593    OW   0.2700   2.7500  56.4800 O     1   SOL   0.0000
3594   HW1   0.7200   2.0800  55.9700 H     1   SOL   0.5897
3595   HW2  -0.6000   2.8000  56.0800 H     1   SOL   0.5897
3596    MW   0.2100   2.6600  56.3600 M     1   SOL  -1.1794
3597    OW   4.3300   0.2000  56.0500 O     1   SOL   0.0000
3598   HW1   4.4200  -0.1100  56.9600 H     1   SOL   0.5897
3599   HW2   5.0300   0.8400  55.9500 H     1   SOL   0.5897
3600    MW   4.4400   0.2400  56.1600 M     1   SOL  -1.1794
3601    OW   8.8000  10.6900  71.7200 O     1   SOL   0.0000
3602   HW1   9.5600  10.1600  71.9400 H     1   SOL   0.5897
3603   HW2   9.1200  11.3100  71.0700 H     1   SOL   0.5897
3604    MW   8.9500  10.7100  71.6700 M     1   SOL  -1.1794
3605    OW   9.6700  23.3900  73.9100 O     1   SOL   0.0000
3606   HW1   9.6900  23.6700  74.8300 H     1   SOL   0.5897
3607   HW2  10.1700  22.5800  73.8900 H     1   SOL   0.5897
3608    MW   9.7400  23.3200  74.0300 M     1   SOL  -1.1794
3609    OW  12.4400  17.5100  42.1800 O     1   SOL   0.0000
3610   HW1  12.1400  17.2900  43.0700 H     1   SOL   0.5897
3611   HW2  11.6300  17.6700  41.7000 H     1   SOL   0.5897
3612    MW  12.2900  17.5000  42.2400 M     1   SOL  -1.1794
3613    OW  18.0600  21.4000  62.8000 O     1   SOL   0.0000
3614   HW1  17.9700  22.2400  62.3500 H     1   SOL   0.5897
3615   HW2  18.2400  20.7700  62.1000 H     1   SOL   0.5897
3616    MW  18.0700  21.4200  62.6400 M     1   SOL  -1.1794
3617    OW  22.5400  23.3100  30.6100 O     1   SOL   0.0000
3618   HW1  21.9500  23.2100  29.8600 H     1   SOL   0.5897
3619   HW2  22.1900  22.7100  31.2600 H     1   SOL   0.5897
3620    MW  22.4200  23.2100  30.5900 M     1   SOL  -1.1794
3621    OW  21.4100  17.7900  29.1800 O     1   SOL   0.0000
3622   HW1  21.1500  17.6200  28.2800 H     1   SOL   0.5897
3623   HW2  20.9700  18.6100  29.4100 H     1   SOL   0.5897
3624    MW  21.3100  17.8800  29.0900 M     1   SOL  -1.1794
3625    OW  10.9000   9.1600  64.0300 O     1   SOL   0.0000
3626   HW1  10.5400   9.3800  64.9000 H     1   SOL   0.5897
3627   HW2  11.5800   8.5100  64.2100 H     1   SOL   0.5897
3628    MW  10.9400   9.1000  64.1700 M     1   SOL  -1.1794
3629    OW  18.2000  18.2300  72.4400 O     1   SOL   0.0000
3630   HW1  18.0300  17.4000  71.9900 H     1   SOL   0.5897
3631   HW2  17.6300  18.2000  73.2100 H     1   SOL   0.5897
3632    MW  18.1000  18.1200  72.4800 M     1   SOL  -1.1794
3633    OW   4.8000   2.9100  49.4700 O     1   SOL   0.0000
3634   HW1   5.3500   3.7000  49.3700 H     1   SOL   0.5897
3635   HW2   3.9100   3.2200  49.3000 H     1   SOL   0.5897
3636    MW   4.7600   3.0600  49.4400 M     1   SOL  -1.1794
3637    OW  17.5300  10.4200  36.3200 O     1   SOL   0.0000
3638   HW1  18.1700  10.5900  37.0200 H     1   SOL   0.5897
3639   HW2  17.9900   9.8300  35.7200 H     1   SOL   0.5897
3640    MW  17.6800  10.3600  36.3300 M     1   SOL  -1.1794
3641    OW  17.8700   7.7600  27.6700 O     1   SOL   0.0000
3642   HW1  18.0900   8.6900  27.6300 H     1   SOL   0.5897
3643   HW2  17.1200   7.7100  28.2600 H     1   SOL   0.5897
3644    MW  17.8000   7.8800  27.7400 M     1   SOL  -1.1794
3645    OW  13.9200  23.2400  36.5800 O     1   SOL   0.0000
3646   HW1  14.1400  23.2600  35.6500 H     1   SOL   0.5897
3647   HW2  14.5800  22.6800  36.9800 H     1   SOL   0.5897
3648    MW  14.0400  23.1700  36.5100 M     1   SOL  -1.1794
3649    OW  21.8700  11.5500  35.9000 O     1   SOL   0.0000
3650   HW1  22.3900  12.3400  36.0700 H     1   SOL   0.5897
3651   HW2  22.0300  10.9900  36.6600 H     1   SOL   0.5897
3652    MW  21.9600  11.5800  36.0200 M     1   SOL  -1.1794
3653    OW   4.6300  23.2000  58.6600 O     1   SOL   0.0000
3654   HW1   5.2300  23.8700  58.9900 H     1   SOL   0.5897
3655   HW2   3.9300  23.1500  59.3200 H     1   SOL   0.5897
3656    MW   4.6200  23.2900  58.7900 M     1   SOL  -1.1794
3657    OW  13.1100   1.0800  54.4400 O     1   SOL   0.0000
3658   HW1  12.8700   0.7900  53.5600 H     1   SOL   0.5897
3659   HW2  12.6400   0.4800  55.0300 H     1   SOL   0.5897
3660    MW  13.0100   0.9600  54.4000 M     1   SOL  -1.1794
3661    OW  19.8300  23.2400  54.2300 O     1   SOL   0.0000
3662   HW1  19.9100  24.1800  54.0400 H     1   SOL   0.5897
3663   HW2  20.6100  22.8500  53.8600 H     1   SOL   0.5897
3664    MW  19.9400  23.3100  54.1600 M     1   SOL  -1.1794
3665    OW  20.0200  12.2900  49.1900 O     1   SOL   0.0000
3666   HW1  20.7500  11.8400  48.7500 H     1   SOL   0.5897
3667   HW2  19.6800  12.8900  48.5300 H     1   SOL   0.5897
3668    MW  20.0800  12.3100  49.0400 M     1   SOL  -1.1794
3669    OW  23.8900  13.4200  36.3500 O     1   SOL   0.0000
3670   HW1  24.2100  14.0300  35.6900 H     1   SOL   0.5897
3671   HW2  24.6700  13.1700  36.8400 H     1   SOL   0.5897
3672    MW  24.0400  13.4700  36.3300 M     1   SOL  -1.1794
3673    OW   7.7700  11.8100  54.1400 O     1   SOL   0.0000
3674   HW1   8.1200  12.6000  54.5600 H     1   SOL   0.5897
3675   HW2   7.0200  12.1300  53.6300 H     1   SOL   0.5897
3676    MW   7.7200  11.9600  54.1300 M     1   SOL  -1.1794
3677    OW   8.7000  22.9200  27.6200 O     1   SOL   0.0000
3678   HW1   8.3800  23.1000  28.5100 H     1   SOL   0.5897
3679   HW2   9.6500  22.8000  27.7400 H     1   SOL   0.5897
3680    MW   8.7800  22.9300  27.7600 M     1   SOL  -1.1794
3681    OW  23.1300  14.8400  72.3400 O     1   SOL   0.0000
3682   HW1  22.6300  15.2600  71.6400 H     1   SOL   0.5897
3683   HW2  22.8800  13.9100  72.3000 H     1   SOL   0.5897
3684    MW  23.0300  14.7700  72.2400 M     1   SOL  -1.1794
3685    OW  20.0900  12.5300  53.3800 O     1   SOL   0.0000
3686   HW1  20.2000  12.1800  54.2600 H     1   SOL   0.5897
3687   HW2  19.5600  13.3200  53.5100 H     1   SOL   0.5897
3688    MW  20.0300  12.5900  53.5200 M     1   SOL  -1.1794
3689    OW  17.6500  11.8200  73.1500 O     1   SOL   0.0000
3690   HW1  17.2900  12.0700  74.0000 H     1   SOL   0.5897
3691   HW2  18.5800  11.7000  73.3100 H     1   SOL   0.5897
3692    MW  17.7300  11.8400  73.2800 M     1   SOL  -1.1794
3693    OW  10.9800   9.0500  27.7300 O     1   SOL   0.0000
3694   HW1  10.1300   9.4100  27.4600 H     1   SOL   0.5897
3695   HW2  10.7600   8.3300  28.3200 H     1   SOL   0.5897
3696    MW  10.8300   9.0000  27.7700 M     1   SOL  -1.1794
3697    OW  20.8600  15.9000  54.9700 O     1   SOL   0.0000
3698   HW1  21.7700  16.1000  55.1800 H     1   SOL   0.5897
3699   HW2  20.4200  15.8700  55.8100 H     1   SOL   0.5897
3700    MW  20.9200  15.9200  55.1100 M     1   SOL  -1.1794
3701    OW   1.9900   3.5700  48.9400 O     1   SOL   0.0000
3702   HW1   1.0900   3.6400  49.2600 H     1   SOL   0.5897
3703   HW2   1.9000   3.5400  47.9900 H     1   SOL   0.5897
3704    MW   1.8500   3.5800  48.8600 M     1   SOL  -1.1794
3705    OW  19.9400  18.8500  54.6500 O     1   SOL   0.0000
3706   HW1  19.0100  18.7300  54.8900 H     1   SOL   0.5897
3707   HW2  20.3500  18.0200  54.9000 H     1   SOL   0.5897
3708    MW  19.8700  18.7200  54.7200 M     1   SOL  -1.1794
3709    OW  23.2300   3.5500  70.8900 O     1   SOL   0.0000
3710   HW1  22.7700   3.7800  71.6900 H     1   SOL   0.5897
3711   HW2  23.0200   2.6200  70.7500 H     1   SOL   0.5897
3712    MW  23.1400   3.4500  70.9800 M     1   SOL  -1.1794
3713    OW  21.5500  13.8100  50.9900 O     1   SOL   0.0000
3714   HW1  21.4600  13.2100  51.7300 H     1   SOL   0.5897
3715   HW2  21.0300  13.4100  50.2900 H     1   SOL   0.5897
3716    MW  21.4700  13.6800  51.0000 M     1   SOL  -1.1794
3717    OW   0.5400  10.6200  35.0600 O     1   SOL   0.0000
3718   HW1  -0.2700  11.1200  35.1300 H     1   SOL   0.5897
3719   HW2   0.3300   9.9200  34.4300 H     1   SOL   0.5897
3720    MW   0.4000  10.5900  34.9800 M     1   SOL  -1.1794
3721    OW  21.2500   8.6100  38.6500 O     1   SOL   0.0000
3722   HW1  21.7000   8.2900  39.4300 H     1   SOL   0.5897
3723   HW2  21.9500   8.7600  38.0100 H     1   SOL   0.5897
3724    MW  21.4100   8.5900  38.6700 M     1   SOL  -1.1794
3725    OW   9.5900   3.7700  61.0600 O     1   SOL   0.0000
3726   HW1   8.6500   3.7700  61.2200 H     1   SOL   0.5897
3727   HW2   9.9600   4.2700  61.7900 H     1   SOL   0.5897
3728    MW   9.5100   3.8300  61.1800 M     1   SOL  -1.1794
3729    OW   2.8200  18.5000  62.8500 O     1   SOL   0.0000
3730   HW1   2.6700  17.6400  63.2500 H     1   SOL   0.5897
3731   HW2   2.4300  18.4200  61.9700 H     1   SOL   0.5897
3732    MW   2.7500  18.3700  62.7800 M     1   SOL  -1.1794
3733    OW  13.1200   7.3400  64.2500 O     1   SOL   0.0000
3734   HW1  13.0700   6.3900  64.3800 H     1   SOL   0.5897
3735   HW2  13.2400   7.4400  63.3000 H     1   SOL   0.5897
3736    MW  13.1300   7.2300  64.1400 M     1   SOL  -1.1794
3737    OW   5.3100  13.4600  37.1700 O     1   SOL   0.0000
3738   HW1   5.6500  14.3300  37.3800 H     1   SOL   0.5897
3739   HW2   6.0900  12.9000  37.1300 H     1   SOL   0.5897
3740    MW   5.4600  13.5000  37.1900 M     1   SOL  -1.1794
3741    OW  13.3000  20.1700  42.8800 O     1   SOL   0.0000
3742   HW1  13.2300  19.2600  42.6000 H     1   SOL   0.5897
3743   HW2  12.4700  20.3500  43.3300 H     1   SOL   0.5897
3744    MW  13.1800  20.0700  42.9000 M     1   SOL  -1.1794
3745    OW   2.6200  14.4400  29.0300 O     1   SOL   0.0000
3746   HW1   1.7800  14.3800  29.4800 H     1   SOL   0.5897
3747   HW2   3.2100  14.8500  29.6600 H     1   SOL   0.5897
3748    MW   2.5900  14.4900  29.1700 M     1   SOL  -1.1794
3749    OW   8.4500   0.0200  25.1400 O     1   SOL   0.0000
3750   HW1   8.3000  -0.4500  25.9600 H     1   SOL   0.5897
3751   HW2   7.8600   0.7700  25.1700 H     1   SOL   0.5897
3752    MW   8.3500   0.0600  25.2500 M     1   SOL  -1.1794
3753    OW  12.2400   7.8500  47.7900 O     1   SOL   0.0000
3754   HW1  11.5300   8.3900  48.1400 H     1   SOL   0.5897
3755   HW2  12.2500   8.0600  46.8500 H     1   SOL   0.5897
3756    MW  12.1500   7.9500  47.7100 M     1   SOL  -1.1794
3757    OW  14.5100  19.7100  71.7900 O     1   SOL   0.0000
3758   HW1  14.4400  18.7500  71.7100 H     1   SOL   0.5897
3759   HW2  15.4100  19.9000  71.5500 H     1   SOL   0.5897
3760    MW  14.6200  19.6000  71.7400 M     1   SOL  -1.1794
3761    OW   2.2200  12.9200  37.9700 O     1   SOL   0.0000
3762   HW1   2.1900  12.1200  38.5000 H     1   SOL   0.5897
3763   HW2   3.1500  13.1600  37.9700 H     1   SOL   0.5897
3764    MW   2.3400  12.8500  38.0400 M     1   SOL  -1.1794
3765    OW  10.8700   9.1500  71.9300 O     1   SOL   0.0000
3766   HW1  11.5400   9.6900  71.5000 H     1   SOL   0.5897
3767   HW2  11.2200   9.0000  72.8100 H     1   SOL   0.5897
3768    MW  11.0100   9.2000  71.9900 M     1   SOL  -1.1794
3769    OW   0.8900  16.7300  64.4600 O     1   SOL   0.0000
3770   HW1   0.4400  17.2900  63.8200 H     1   SOL   0.5897
3771   HW2   0.2000  16.1900  64.8400 H     1   SOL   0.5897
3772    MW   0.7400  16.7400  64.4300 M     1   SOL  -1.1794
3773    OW   9.3000  12.3200  45.3200 O     1   SOL   0.0000
3774   HW1  10.1300  12.2600  44.8400 H     1   SOL   0.5897
3775   HW2   8.6900  12.7100  44.6900 H     1   SOL   0.5897
3776    MW   9.3300  12.3600  45.1700 M     1   SOL  -1.1794
3777    OW  18.3500   2.4500  72.3300 O     1   SOL   0.0000
3778   HW1  17.4900   2.4800  72.7500 H     1   SOL   0.5897
3779   HW2  18.9500   2.2300  73.0400 H     1   SOL   0.5897
3780    MW  18.3100   2.4200  72.4800 M     1   SOL  -1.1794
3781    OW   8.9300  23.6000  69.6300 O     1   SOL   0.0000
3782   HW1   9.5700  24.0600  70.1700 H     1   SOL   0.5897
3783   HW2   8.2700  23.2900  70.2500 H     1   SOL   0.5897
3784    MW   8.9300  23.6200  69.7800 M     1   SOL  -1.1794
3785    OW  13.4800   7.8700  61.5500 O     1   SOL   0.0000
3786   HW1  13.4800   7.0000  61.1500 H     1   SOL   0.5897
3787   HW2  12.9800   8.4100  60.9400 H     1   SOL   0.5897
3788    MW  13.4100   7.8200  61.4200 M     1   SOL  -1.1794
3789    OW  23.3800   1.8700  45.2200 O     1   SOL   0.0000
3790   HW1  23.5200   0.9200  45.1200 H     1   SOL   0.5897
3791   HW2  23.1600   1.9800  46.1400 H     1   SOL   0.5897
3792    MW  23.3700   1.7500  45.3300 M     1   SOL  -1.1794
3793    OW   9.9500   1.4100  71.9200 O     1   SOL   0.0000
3794   HW1   9.1700   1.9700  71.9800 H     1   SOL   0.5897
3795   HW2   9.8300   0.7700  72.6300 H     1   SOL   0.5897
3796    MW   9.8300   1.4000  72.0300 M     1   SOL  -1.1794
3797    OW  21.7600  10.6700  47.9300 O     1   SOL   0.0000
3798   HW1  22.7000  10.5800  48.0200 H     1   SOL   0.5897
3799   HW2  21.6400  11.1600  47.1100 H     1   SOL   0.5897
3800    MW  21.8700  10.7200  47.8300 M     1   SOL  -1.1794
3801    OW   9.2400   6.7000  56.0800 O     1   SOL   0.0000
3802   HW1  10.0800   7.1200  56.2400 H     1   SOL   0.5897
3803   HW2   8.8900   6.5200  56.9500 H     1   SOL   0.5897
3804    MW   9.3000   6.7300  56.2200 M     1   SOL  -1.1794
3805    OW  11.1400   8.5600  55.5400 O     1   SOL   0.0000
3806   HW1  11.8000   8.3700  54.8700 H     1   SOL   0.5897
3807   HW2  11.6100   9.0800  56.1900 H     1   SOL   0.5897
3808    MW  11.2900   8.6000  55.5400 M     1   SOL  -1.1794
3809    OW  18.7100  23.3700  29.8200 O     1   SOL   0.0000
3810   HW1  19.5000  23.3100  29.2800 H     1   SOL   0.5897
3811   HW2  18.8300  24.1600  30.3400 H     1   SOL   0.5897
3812    MW  18.8300  23.4700  29.8200 M     1   SOL  -1.1794
3813    OW   8.2800  19.5200  42.7300 O     1   SOL   0.0000
3814   HW1   8.6200  19.5200  41.8400 H     1   SOL   0.5897
3815   HW2   7.4800  19.0000  42.6900 H     1   SOL   0.5897
3816    MW   8.2200  19.4500  42.6100 M     1   SOL  -1.1794
3817    OW  14.5500  14.2000  54.3400 O     1   SOL   0.0000
3818   HW1  13.9900  13.4600  54.5900 H     1   SOL   0.5897
3819   HW2  14.1800  14.9400  54.8200 H     1   SOL   0.5897
3820    MW  14.4200  14.2000  54.4400 M     1   SOL  -1.1794
3821    OW  19.1200   0.6700  50.0400 O     1   SOL   0.0000
3822   HW1  18.5000   0.9700  50.7100 H     1   SOL   0.5897
3823   HW2  18.8400  -0.2200  49.8300 H     1   SOL   0.5897
3824    MW  19.0000   0.5900  50.1000 M     1   SOL  -1.1794
3825    OW  16.2800  12.4300  41.5600 O     1   SOL   0.0000
3826   HW1  16.7800  11.6900  41.2000 H     1   SOL   0.5897
3827   HW2  16.4900  12.4300  42.4900 H     1   SOL   0.5897
3828    MW  16.3800  12.3300  41.6400 M     1   SOL  -1.1794
3829    OW  10.4500   1.6000  28.7900 O     1   SOL   0.0000
3830   HW1  10.8800   0.9100  28.2900 H     1   SOL   0.5897
3831   HW2  10.5600   1.3300  29.7100 H     1   SOL   0.5897
3832    MW  10.5200   1.4700  28.8500 M     1   SOL  -1.1794
3833    OW  20.9800   1.1300  34.4300 O     1   SOL   0.0000
3834   HW1  20.8900   0.1800  34.5200 H     1   SOL   0.5897
3835   HW2  20.1900   1.4800  34.8600 H     1   SOL   0.5897
3836    MW  20.8600   1.0500  34.5000 M     1   SOL  -1.1794
3837    OW  11.3700  23.0200  27.9300 O     1   SOL   0.0000
3838   HW1  12.2300  23.1200  27.5300 H     1   SOL   0.5897
3839   HW2  11.5000  22.4200  28.6600 H     1   SOL   0.5897
3840    MW  11.5000  22.9500  27.9700 M     1   SOL  -1.1794
3841    OW   8.8600  23.1100  60.0000 O     1   SOL   0.0000
3842   HW1   9.5500  23.6000  60.4600 H     1   SOL   0.5897
3843   HW2   8.6500  22.3900  60.5900 H     1   SOL   0.5897
3844    MW   8.9300  23.0800  60.1400 M     1   SOL  -1.1794
3845    OW  13.7200   9.4600  30.9500 O     1   SOL   0.0000
3846   HW1  14.0600   9.9200  31.7200 H     1   SOL   0.5897
3847   HW2  13.3500  10.1400  30.4000 H     1   SOL   0.5897
3848    MW  13.7200   9.6100  30.9800 M     1   SOL  -1.1794
3849    OW  17.1200   9.7300  40.5100 O     1   SOL   0.0000
3850   HW1  17.6600   9.9600  39.7500 H     1   SOL   0.5897
3851   HW2  16.5900   8.9900  40.2100 H     1   SOL   0.5897
3852    MW  17.1200   9.6600  40.3600 M     1   SOL  -1.1794
3853    OW  10.6800   1.3800  38.6300 O     1   SOL   0.0000
3854   HW1  10.2300   1.0600  39.4100 H     1   SOL   0.5897
3855   HW2  11.5800   1.5500  38.9300 H     1   SOL   0.5897
3856    MW  10.7400   1.3600  38.7800 M     1   SOL  -1.1794
3857    OW   2.7900   4.0700  55.0400 O     1   SOL   0.0000
3858   HW1   2.3100   4.0200  54.2100 H     1   SOL   0.5897
3859   HW2   2.2200   3.6500  55.6700 H     1   SOL   0.5897
3860    MW   2.6500   4.0100  55.0100 M     1   SOL  -1.1794
3861    OW   7.8500   5.4900  28.9800 O     1   SOL   0.0000
3862   HW1   7.2000   6.1300  29.2600 H     1   SOL   0.5897
3863   HW2   8.6700   5.9800  28.9000 H     1   SOL   0.5897
3864    MW   7.8800   5.6400  29.0100 M     1   SOL  -1.1794
3865    OW  17.0800  19.5800  49.5100 O     1   SOL   0.0000
3866   HW1  17.4100  20.4300  49.7900 H     1   SOL   0.5897
3867   HW2  16.3200  19.7900  48.9600 H     1   SOL   0.5897
3868    MW  17.0200  19.7200  49.4700 M     1   SOL  -1.1794
3869    OW  18.6700  13.7300  33.5500 O     1   SOL   0.0000
3870   HW1  18.4300  14.4200  34.1700 H     1   SOL   0.5897
3871   HW2  17.9500  13.1100  33.6000 H     1   SOL   0.5897
3872    MW  18.5400  13.7400  33.6400 M     1   SOL  -1.1794
3873    OW   6.7400  14.5800  62.2400 O     1   SOL   0.0000
3874   HW1   7.1800  15.2800  62.7200 H     1   SOL   0.5897
3875   HW2   5.9000  14.4800  62.6800 H     1   SOL   0.5897
3876    MW   6.6900  14.6600  62.3600 M     1   SOL  -1.1794
3877    OW  13.7200  16.8900  71.6000 O     1   SOL   0.0000
3878   HW1  13.8600  16.7000  72.5300 H     1   SOL   0.5897
3879   HW2  13.0200  16.2900  71.3300 H     1   SOL   0.5897
3880    MW  13.6400  16.7800  71.6900 M     1   SOL  -1.1794
3881    OW   8.4000   5.6200  66.6000 O     1   SOL   0.0000
3882   HW1   9.0400   4.9200  66.4900 H     1   SOL   0.5897
3883   HW2   8.8100   6.2300  67.2200 H     1   SOL   0.5897
3884    MW   8.5400   5.6100  66.6700 M     1   SOL  -1.1794
3885    OW  19.3900   6.2600  41.3300 O     1   SOL   0.0000
3886   HW1  19.9800   6.3100  40.5700 H     1   SOL   0.5897
3887   HW2  19.9700   6.1400  42.0800 H     1   SOL   0.5897
3888    MW  19.5500   6.2500  41.3300 M     1   SOL  -1.1794
3889    OW   9.3300  10.7500  57.2200 O     1   SOL   0.0000
3890   HW1   9.3000   9.8000  57.1100 H     1   SOL   0.5897
3891   HW2   8.4100  11.0000  57.3200 H     1   SOL   0.5897
3892    MW   9.2000  10.6500  57.2200 M     1   SOL  -1.1794
3893    OW  15.6600   9.4400  56.6600 O     1   SOL   0.0000
3894   HW1  15.2500   8.9900  55.9300 H     1   SOL   0.5897
3895   HW2  16.2400  10.0800  56.2600 H     1   SOL   0.5897
3896    MW  15.6800   9.4700  56.5100 M     1   SOL  -1.1794
3897    OW  18.1700  23.2800  58.1900 O     1   SOL   0.0000
3898   HW1  17.4500  23.6200  57.6600 H     1   SOL   0.5897
3899   HW2  18.9500  23.4500  57.6700 H     1   SOL   0.5897
3900    MW  18.1800  23.3500  58.0500 M     1   SOL  -1.1794
3901    OW  16.6700   4.3400  65.0300 O     1   SOL   0.0000
3902   HW1  17.1600   4.5600  64.2300 H     1   SOL   0.5897
3903   HW2  17.1600   3.6100  65.4200 H     1   SOL   0.5897
3904    MW  16.8100   4.2700  64.9800 M     1   SOL  -1.1794
3905    OW   6.8700   0.9700  73.5500 O     1   SOL   0.0000
3906   HW1   6.5800   0.2400  73.0100 H     1   SOL   0.5897
3907   HW2   7.5800   0.6100  74.0800 H     1   SOL   0.5897
3908    MW   6.9300   0.8300  73.5500 M     1   SOL  -1.1794
3909    OW  12.0800  13.3200  35.0900 O     1   SOL   0.0000
3910   HW1  11.3300  12.8100  34.7800 H     1   SOL   0.5897
3911   HW2  12.4000  13.7700  34.3100 H     1   SOL   0.5897
3912    MW  12.0200  13.3200  34.9400 M     1   SOL  -1.1794
3913    OW   8.0100  23.8000  52.7100 O     1   SOL   0.0000
3914   HW1   7.0800  23.7100  52.5200 H     1   SOL   0.5897
3915   HW2   8.1200  24.7200  52.9600 H     1   SOL   0.5897
3916    MW   7.9000  23.9100  52.7200 M     1   SOL  -1.1794
3917    OW   0.8100  23.9100  71.1200 O     1   SOL   0.0000
3918   HW1   1.2200  24.7300  71.4100 H     1   SOL   0.5897
3919   HW2   1.4900  23.4600  70.6300 H     1   SOL   0.5897
3920    MW   0.9600  23.9600  71.1000 M     1   SOL  -1.1794
3921    OW   3.8000  11.1900  63.5800 O     1   SOL   0.0000
3922   HW1   4.7000  11.2600  63.2600 H     1   SOL   0.5897
3923   HW2   3.6900  10.2600  63.7900 H     1   SOL   0.5897
3924    MW   3.9000  11.0700  63.5700 M     1   SOL  -1.1794
3925    OW   8.9700   2.0600  47.9200 O     1   SOL   0.0000
3926   HW1   9.0500   2.8000  48.5200 H     1   SOL   0.5897
3927   HW2   8.1300   2.1900  47.4800 H     1   SOL   0.5897
3928    MW   8.8700   2.1800  47.9400 M     1   SOL  -1.1794
3929    OW  23.6100  16.7900  48.8700 O     1   SOL   0.0000
3930   HW1  22.8500  16.9300  49.4200 H     1   SOL   0.5897
3931   HW2  23.2500  16.5400  48.0200 H     1   SOL   0.5897
3932    MW  23.4600  16.7800  48.8300 M     1   SOL  -1.1794
3933    OW  10.6500  13.0300  56.2500 O     1   SOL   0.0000
3934   HW1  10.0800  12.3000  56.4800 H     1   SOL   0.5897
3935   HW2  11.4100  12.6200  55.8300 H     1   SOL   0.5897
3936    MW  10.6800  12.8800  56.2200 M     1   SOL  -1.1794
3937    OW   9.3000  17.0500  28.3800 O     1   SOL   0.0000
3938   HW1   8.7600  17.5800  28.9600 H     1   SOL   0.5897
3939   HW2   8.9400  17.1900  27.5100 H     1   SOL   0.5897
3940    MW   9.1800  17.1400  28.3400 M     1   SOL  -1.1794
3941    OW  23.3500   1.7500  58.8700 O     1   SOL   0.0000
3942   HW1  24.0000   1.8300  59.5600 H     1   SOL   0.5897
3943   HW2  23.7300   2.2400  58.1300 H     1   SOL   0.5897
3944    MW  23.4900   1.8300  58.8600 M     1   SOL  -1.1794
3945    OW  15.1400   4.9800  42.9100 O     1   SOL   0.0000
3946   HW1  15.0800   4.4900  42.0900 H     1   SOL   0.5897
3947   HW2  14.4200   5.6100  42.8600 H     1   SOL   0.5897
3948    MW  15.0400   5.0000  42.8000 M     1   SOL  -1.1794
3949    OW   4.9800  14.0900  44.0800 O     1   SOL   0.0000
3950   HW1   4.2900  13.4400  44.1600 H     1   SOL   0.5897
3951   HW2   5.0800  14.4500  44.9600 H     1   SOL   0.5897
3952    MW   4.9000  14.0500  44.2100 M     1   SOL  -1.1794
3953    OW  16.5100  12.0600  26.2200 O     1   SOL   0.0000
3954   HW1  15.8800  11.4800  26.6500 H     1   SOL   0.5897
3955   HW2  16.4200  12.9000  26.6900 H     1   SOL   0.5897
3956    MW  16.4100  12.1000  26.3400 M     1   SOL  -1.1794
3957    OW  10.4300  17.0300  24.5000 O     1   SOL   0.0000
3958   HW1  10.0300  17.6800  23.9300 H     1   SOL   0.5897
3959   HW2  10.7700  16.3600  23.9100 H     1   SOL   0.5897
3960    MW  10.4300  17.0300  24.3500 M     1   SOL  -1.1794
3961    OW  15.2800   9.6500  45.3900 O     1   SOL   0.0000
3962   HW1  15.8800   9.0300  44.9800 H     1   SOL   0.5897
3963   HW2  14.4100   9.3000  45.2000 H     1   SOL   0.5897
3964    MW  15.2400   9.5200  45.3100 M     1   SOL  -1.1794
3965    OW  17.1700  13.3800  62.1200 O     1   SOL   0.0000
3966   HW1  17.1000  13.8300  61.2800 H     1   SOL   0.5897
3967   HW2  17.8900  12.7600  62.0000 H     1   SOL   0.5897
3968    MW  17.2600  13.3600  61.9900 M     1   SOL  -1.1794
3969    OW   8.0200  17.5400  26.1100 O     1   SOL   0.0000
3970   HW1   8.8000  17.3900  25.5700 H     1   SOL   0.5897
3971   HW2   7.7100  18.4100  25.8500 H     1   SOL   0.5897
3972    MW   8.0800  17.6400  26.0000 M     1   SOL  -1.1794
3973    OW  21.2100   8.9800  73.7400 O     1   SOL   0.0000
3974   HW1  20.8200   9.8600  73.8300 H     1   SOL   0.5897
3975   HW2  21.2200   8.8300  72.8000 H     1   SOL   0.5897
3976    MW  21.1600   9.0800  73.6300 M     1   SOL  -1.1794
3977    OW   1.4200  18.8100  55.1200 O     1   SOL   0.0000
3978   HW1   1.3800  19.7600  55.2600 H     1   SOL   0.5897
3979   HW2   1.8200  18.7100  54.2600 H     1   SOL   0.5897
3980    MW   1.4700  18.9300  55.0200 M     1   SOL  -1.1794
3981    OW   3.3600   8.9500  24.6800 O     1   SOL   0.0000
3982   HW1   3.9300   8.2000  24.8500 H     1   SOL   0.5897
3983   HW2   2.4800   8.6000  24.7400 H     1   SOL   0.5897
3984    MW   3.3200   8.8100  24.7100 M     1   SOL  -1.1794
3985    OW   1.5700  16.1100  27.0400 O     1   SOL   0.0000
3986   HW1   2.0000  15.4300  27.5600 H     1   SOL   0.5897
3987   HW2   2.2200  16.3600  26.3800 H     1   SOL   0.5897
3988    MW   1.7200  16.0600  27.0200 M     1   SOL  -1.1794
3989    OW  11.4500  15.4000  66.0100 O     1   SOL   0.0000
3990   HW1  11.2500  15.7000  66.9000 H     1   SOL   0.5897
3991   HW2  11.9500  14.5900  66.1300 H     1   SOL   0.5897
3992    MW  11.4900  15.3300  66.1400 M     1   SOL  -1.1794
3993    OW   0.6900  14.7900  34.0900 O     1   SOL   0.0000
3994   HW1   1.1900  14.0400  33.7500 H     1   SOL   0.5897
3995   HW2  -0.1100  14.8100  33.5600 H     1   SOL   0.5897
3996    MW   0.6500  14.6900  33.9700 M     1   SOL  -1.1794
3997    OW   6.5200  11.3700  32.6200 O     1   SOL   0.0000
3998   HW1   5.8500  11.7500  33.2000 H     1   SOL   0.5897
3999   HW2   6.1000  11.3400  31.7600 H     1   SOL   0.5897
4000    MW   6.3700  11.4200  32.5800 M     1   SOL  -1.1794
4001    OW   1.8800   9.2700  66.5600 O     1   SOL   0.0000
4002   HW1   1.7800  10.0600  67.0900 H     1   SOL   0.5897
4003   HW2   2.1400   8.5900  67.1800 H     1   SOL   0.5897
4004    MW   1.9000   9.2900  66.7100 M     1   SOL  -1.1794
4005    OW  12.1200  23.5200  56.8500 O     1   SOL   0.0000
4006   HW1  12.8000  23.0700  57.3400 H     1   SOL   0.5897
4007   HW2  11.8400  24.2300  57.4200 H     1   SOL   0.5897
4008    MW  12.1700  23.5500  56.9900 M     1   SOL  -1.1794
4009    OW   0.1200  12.8500  49.9200 O     1   SOL   0.0000
4010   HW1  -0.6700  13.0500  50.4200 H     1   SOL   0.5897
4011   HW2   0.0000  13.3300  49.1000 H     1   SOL   0.5897
4012    MW   0.0000  12.9400  49.8800 M     1   SOL  -1.1794
4013    OW  17.3700  11.5300  68.1400 O     1   SOL   0.0000
4014   HW1  17.8100  11.4600  67.3000 H     1   SOL   0.5897
4015   HW2  17.5100  10.6800  68.5600 H     1   SOL   0.5897
4016    MW  17.4500  11.4000  68.0800 M     1   SOL  -1.1794
4017    OW   0.6800  18.5400  68.4600 O     1   SOL   0.0000
4018   HW1   1.2400  18.4800  67.6800 H     1   SOL   0.5897
4019   HW2   1.1900  18.1000  69.1400 H     1   SOL   0.5897
4020    MW   0.8300  18.4700  68.4500 M     1   SOL  -1.1794
4021    OW  15.3500   3.5800  40.4700 O     1   SOL   0.0000
4022   HW1  15.8300   4.2600  39.9900 H     1   SOL   0.5897
4023   HW2  15.8300   2.7700  40.2800 H     1   SOL   0.5897
4024    MW  15.4800   3.5600  40.3800 M     1   SOL  -1.1794
4025    OW   9.2300  14.1300  27.9900 O     1   SOL   0.0000
4026   HW1   8.5300  14.0400  28.6400 H     1   SOL   0.5897
4027   HW2   9.4200  15.0700  27.9800 H     1   SOL   0.5897
4028    MW   9.1600  14.2500  28.0800 M     1   SOL  -1.1794
4029    OW  16.5000  14.7200  27.0300 O     1   SOL   0.0000
4030   HW1  16.1100  15.2400  26.3300 H     1   SOL   0.5897
4031   HW2  15.9200  14.8500  27.7800 H     1   SOL   0.5897
4032    MW  16.3700  14.8100  27.0300 M     1   SOL  -1.1794
4033    OW   5.8600  20.3700  71.6000 O     1   SOL   0.0000
4034   HW1   6.2700  19.9200  72.3400 H     1   SOL   0.5897
4035   HW2   6.4500  20.2200  70.8700 H     1   SOL   0.5897
4036    MW   5.9900  20.2900  71.6000 M     1   SOL  -1.1794
4037    OW   1.6100   3.8900  46.1300 O     1   SOL   0.0000
4038   HW1   2.3700   3.7200  45.5800 H     1   SOL   0.5897
4039   HW2   0.9800   3.2100  45.8800 H     1   SOL   0.5897
4040    MW   1.6300   3.7700  46.0200 M     1   SOL  -1.1794
4041    OW  23.3100  17.9100  42.7000 O     1   SOL   0.0000
4042   HW1  24.2200  17.9900  42.9800 H     1   SOL   0.5897
4043   HW2  23.3100  17.1500  42.1200 H     1   SOL   0.5897
4044    MW  23.4300  17.8200  42.6600 M     1   SOL  -1.1794
4045    OW  12.8900   6.0300  68.6300 O     1   SOL   0.0000
4046   HW1  13.8300   6.0900  68.8300 H     1   SOL   0.5897
4047   HW2  12.4800   5.8500  69.4700 H     1   SOL   0.5897
4048    MW  12.9600   6.0100  68.7700 M     1   SOL  -1.1794
4049    OW  16.1400   7.7200  61.3900 O     1   SOL   0.0000
4050   HW1  16.3200   6.8100  61.6400 H     1   SOL   0.5897
4051   HW2  15.2000   7.8300  61.5600 H     1   SOL   0.5897
4052    MW  16.0400   7.6100  61.4500 M     1   SOL  -1.1794
4053    OW   9.0000  21.0300  31.3200 O     1   SOL   0.0000
4054   HW1   8.5700  21.7500  30.8700 H     1   SOL   0.5897
4055   HW2   8.8300  21.1800  32.2500 H     1   SOL   0.5897
4056    MW   8.9200  21.1500  31.3800 M     1   SOL  -1.1794
4057    OW  23.6900  23.5000  48.8400 O     1   SOL   0.0000
4058   HW1  24.2100  23.8800  49.5500 H     1   SOL   0.5897
4059   HW2  24.3400  23.3200  48.1600 H     1   SOL   0.5897
4060    MW  23.8500  23.5300  48.8400 M     1   SOL  -1.1794
4061    OW  15.9000  10.0900  48.1000 O     1   SOL   0.0000
4062   HW1  15.6700   9.7800  47.2200 H     1   SOL   0.5897
4063   HW2  16.8000   9.7900  48.2300 H     1   SOL   0.5897
4064    MW  15.9900  10.0100  48.0000 M     1   SOL  -1.1794
4065    OW  17.0100  18.5900  24.5400 O     1   SOL   0.0000
4066   HW1  17.8300  18.8800  24.9500 H     1   SOL   0.5897
4067   HW2  16.3400  19.1500  24.9300 H     1   SOL   0.5897
4068    MW  17.0300  18.7000  24.6500 M     1   SOL  -1.1794
4069    OW  18.3000  11.9300  65.4200 O     1   SOL   0.0000
4070   HW1  17.5600  11.5100  64.9800 H     1   SOL   0.5897
4071   HW2  18.2600  12.8500  65.1300 H     1   SOL   0.5897
4072    MW  18.1900  12.0000  65.3200 M     1   SOL  -1.1794
4073    OW   6.0700  20.7500  58.9900 O     1   SOL   0.0000
4074   HW1   6.6900  20.9700  59.6800 H     1   SOL   0.5897
4075   HW2   5.5900  21.5600  58.8300 H     1   SOL   0.5897
4076    MW   6.0900  20.8900  59.0600 M     1   SOL  -1.1794
4077    OW  13.0700   2.8900  39.1100 O     1   SOL   0.0000
4078   HW1  13.2300   2.6100  38.2100 H     1   SOL   0.5897
4079   HW2  13.9300   3.1500  39.4400 H     1   SOL   0.5897
4080    MW  13.2100   2.8900  39.0400 M     1   SOL  -1.1794
4081    OW  20.8800  22.7200  28.3800 O     1   SOL   0.0000
4082   HW1  20.7100  21.8600  28.7700 H     1   SOL   0.5897
4083   HW2  21.0500  22.5300  27.4600 H     1   SOL   0.5897
4084    MW  20.8800  22.5800  28.3100 M     1   SOL  -1.1794
4085    OW  12.0700  16.8200  38.2200 O     1   SOL   0.0000
4086   HW1  11.8900  17.5800  37.6800 H     1   SOL   0.5897
4087   HW2  11.5000  16.9200  38.9900 H     1   SOL   0.5897
4088    MW  11.9700  16.9300  38.2500 M     1   SOL  -1.1794
4089    OW  17.8800   1.2900  27.7700 O     1   SOL   0.0000
4090   HW1  18.4700   1.1100  27.0400 H     1   SOL   0.5897
4091   HW2  18.1500   0.6800  28.4600 H     1   SOL   0.5897
4092    MW  17.9900   1.1800  27.7700 M     1   SOL  -1.1794
4093    OW  16.3600  14.9900  60.0700 O     1   SOL   0.0000
4094   HW1  16.6400  15.2300  59.1800 H     1   SOL   0.5897
4095   HW2  16.2300  15.8300  60.5100 H     1   SOL   0.5897
4096    MW  16.3800  15.1400  60.0100 M     1   SOL  -1.1794
4097    OW  12.4200  10.1500  37.2700 O     1   SOL   0.0000
4098   HW1  13.3000   9.7900  37.3800 H     1   SOL   0.5897
4099   HW2  12.3300  10.2900  36.3300 H     1   SOL   0.5897
4100    MW  12.5200  10.1200  37.1600 M     1   SOL  -1.1794
4101    OW   6.1900  15.8800  37.7200 O     1   SOL   0.0000
4102   HW1   5.4800  16.0500  38.3500 H     1   SOL   0.5897
4103   HW2   5.9900  16.4400  36.9800 H     1   SOL   0.5897
4104    MW   6.0700  15.9800  37.7100 M     1   SOL  -1.1794
4105    OW  11.3200  16.5700  57.5000 O     1   SOL   0.0000
4106   HW1  11.2400  16.9500  58.3700 H     1   SOL   0.5897
4107   HW2  10.4300  16.3400  57.2500 H     1   SOL   0.5897
4108    MW  11.1900  16.5900  57.5900 M     1   SOL  -1.1794
4109    OW  15.5200   5.9800  68.9000 O     1   SOL   0.0000
4110   HW1  15.6600   5.1300  69.3100 H     1   SOL   0.5897
4111   HW2  16.2200   6.0600  68.2600 H     1   SOL   0.5897
4112    MW  15.6300   5.8800  68.8700 M     1   SOL  -1.1794
4113    OW  12.2400   0.8300  51.9000 O     1   SOL   0.0000
4114   HW1  11.7900   1.6700  51.9100 H     1   SOL   0.5897
4115   HW2  11.6500   0.2500  51.4300 H     1   SOL   0.5897
4116    MW  12.1000   0.8700  51.8400 M     1   SOL  -1.1794
4117    OW  13.0300   4.1900  50.4100 O     1   SOL   0.0000
4118   HW1  13.5600   3.3900  50.4000 H     1   SOL   0.5897
4119   HW2  12.3200   4.0000  51.0200 H     1   SOL   0.5897
4120    MW  13.0100   4.0600  50.4900 M     1   SOL  -1.1794
4121    OW   6.7800   0.8200  59.3800 O     1   SOL   0.0000
4122   HW1   7.4800   0.2400  59.6600 H     1   SOL   0.5897
4123   HW2   7.1600   1.3400  58.6700 H     1   SOL   0.5897
4124    MW   6.9300   0.8100  59.3300 M     1   SOL  -1.1794
4125    OW  14.5400  21.3300  40.4500 O     1   SOL   0.0000
4126   HW1  14.2000  21.0000  41.2800 H     1   SOL   0.5897
4127   HW2  15.1400  20.6400  40.1500 H     1   SOL   0.5897
4128    MW  14.5800  21.1900  40.5200 M     1   SOL  -1.1794
4129    OW   3.2000   2.9200  39.9300 O     1   SOL   0.0000
4130   HW1   2.3700   3.1000  39.4800 H     1   SOL   0.5897
4131   HW2   3.6400   3.7700  39.9700 H     1   SOL   0.5897
4132    MW   3.1500   3.0600  39.8700 M     1   SOL  -1.1794
4133    OW   5.6900   4.3000  70.9100 O     1   SOL   0.0000
4134   HW1   6.0300   4.5200  70.0500 H     1   SOL   0.5897
4135   HW2   5.0600   5.0000  71.1100 H     1   SOL   0.5897
4136    MW   5.6500   4.4300  70.8200 M     1   SOL  -1.1794
4137    OW   3.4900  20.7500  38.4700 O     1   SOL   0.0000
4138   HW1   4.0900  20.2200  37.9500 H     1   SOL   0.5897
4139   HW2   3.9700  20.9200  39.2800 H     1   SOL   0.5897
4140    MW   3.6400  20.7000  38.5100 M     1   SOL  -1.1794
4141    OW   7.1800   5.3000  42.4400 O     1   SOL   0.0000
4142   HW1   7.2200   4.3600  42.5900 H     1   SOL   0.5897
4143   HW2   8.0700   5.6100  42.6100 H     1   SOL   0.5897
4144    MW   7.3100   5.2200  42.4900 M     1   SOL  -1.1794
4145    OW  13.7400  10.0500  70.5800 O     1   SOL   0.0000
4146   HW1  13.7900  10.9800  70.3400 H     1   SOL   0.5897
4147   HW2  14.4100   9.9500  71.2600 H     1   SOL   0.5897
4148    MW  13.8400  10.1600  70.6400 M     1   SOL  -1.1794
4149    OW   7.4000   6.2700  54.2200 O     1   SOL   0.0000
4150   HW1   8.0900   6.3000  54.8700 H     1   SOL   0.5897
4151   HW2   6.6100   6.0500  54.7100 H     1   SOL   0.5897
4152    MW   7.3800   6.2500  54.3700 M     1   SOL  -1.1794
4153    OW  20.1800  15.0300  59.8600 O     1   SOL   0.0000
4154   HW1  21.0600  14.6600  59.8200 H     1   SOL   0.5897
4155   HW2  20.1700  15.5600  60.6600 H     1   SOL   0.5897
4156    MW  20.2900  15.0500  59.9700 M     1   SOL  -1.1794
4157    OW  17.8300  20.5700  45.4700 O     1   SOL   0.0000
4158   HW1  16.9600  20.8700  45.2200 H     1   SOL   0.5897
4159   HW2  18.3600  20.6900  44.6800 H     1   SOL   0.5897
4160    MW  17.7800  20.6300  45.3300 M     1   SOL  -1.1794
4161    OW   4.3600  16.8000  39.4200 O     1   SOL   0.0000
4162   HW1   4.3900  17.7400  39.5900 H     1   SOL   0.5897
4163   HW2   4.3600  16.4000  40.2900 H     1   SOL   0.5897
4164    MW   4.3600  16.8700  39.5600 M     1   SOL  -1.1794
4165    OW   3.4400  23.4600  29.2200 O     1   SOL   0.0000
4166   HW1   3.7600  24.2800  28.8400 H     1   SOL   0.5897
4167   HW2   2.7900  23.7300  29.8600 H     1   SOL   0.5897
4168    MW   3.3900  23.6100  29.2500 M     1   SOL  -1.1794
4169    OW  15.4700  21.6600  43.9400 O     1   SOL   0.0000
4170   HW1  15.0800  22.3700  44.4400 H     1   SOL   0.5897
4171   HW2  14.7300  21.1600  43.6000 H     1   SOL   0.5897
4172    MW  15.3200  21.6900  43.9600 M     1   SOL  -1.1794
4173    OW  12.9300   1.4000  32.7700 O     1   SOL   0.0000
4174   HW1  12.3200   1.0800  32.1100 H     1   SOL   0.5897
4175   HW2  13.3300   0.6100  33.1400 H     1   SOL   0.5897
4176    MW  12.9000   1.2500  32.7300 M     1   SOL  -1.1794
4177    OW  12.9900   9.8700  57.3300 O     1   SOL   0.0000
4178   HW1  13.0400  10.8200  57.3700 H     1   SOL   0.5897
4179   HW2  13.8300   9.6100  56.9600 H     1   SOL   0.5897
4180    MW  13.1100   9.9600  57.2900 M     1   SOL  -1.1794
4181    OW   3.2400   9.3000  42.6600 O     1   SOL   0.0000
4182   HW1   3.6700   8.9100  43.4200 H     1   SOL   0.5897
4183   HW2   3.7900   9.0500  41.9200 H     1   SOL   0.5897
4184    MW   3.3700   9.2100  42.6700 M     1   SOL  -1.1794
4185    OW  20.8900  18.2400  72.3300 O     1   SOL   0.0000
4186   HW1  19.9400  18.2500  72.2200 H     1   SOL   0.5897
4187   HW2  21.1900  19.0200  71.8500 H     1   SOL   0.5897
4188    MW  20.8000  18.3500  72.2500 M     1   SOL  -1.1794
4189    OW  19.9700   7.4400  63.7900 O     1   SOL   0.0000
4190   HW1  19.6600   6.6900  63.2900 H     1   SOL   0.5897
4191   HW2  19.2500   8.0700  63.7500 H     1   SOL   0.5897
4192    MW  19.8300   7.4200  63.7200 M     1   SOL  -1.1794
4193    OW   8.9000   8.2200  60.2000 O     1   SOL   0.0000
4194   HW1   8.4400   9.0400  60.0300 H     1   SOL   0.5897
4195   HW2   9.8100   8.4100  59.9600 H     1   SOL   0.5897
4196    MW   8.9600   8.3600  60.1400 M     1   SOL  -1.1794
4197    OW  16.9300   9.8000  53.2700 O     1   SOL   0.0000
4198   HW1  15.9900   9.7600  53.1200 H     1   SOL   0.5897
4199   HW2  17.2600  10.3500  52.5600 H     1   SOL   0.5897
4200    MW  16.8500   9.8600  53.1500 M     1   SOL  -1.1794
4201    OW   0.4900  10.0700  29.8800 O     1   SOL   0.0000
4202   HW1   1.3100  10.3900  30.2600 H     1   SOL   0.5897
4203   HW2  -0.1000  10.8200  29.9200 H     1   SOL   0.5897
4204    MW   0.5200  10.2100  29.9400 M     1   SOL  -1.1794
4205    OW   1.9600  10.2000  39.2900 O     1   SOL   0.0000
4206   HW1   1.4300   9.8700  40.0200 H     1   SOL   0.5897
4207   HW2   2.7200   9.6200  39.2700 H     1   SOL   0.5897
4208    MW   1.9900  10.0800  39.3800 M     1   SOL  -1.1794
4209    OW  19.5800   7.9000  67.2700 O     1   SOL   0.0000
4210   HW1  18.7900   7.5200  66.8800 H     1   SOL   0.5897
4211   HW2  19.9500   8.4400  66.5700 H     1   SOL   0.5897
4212    MW  19.5300   7.9200  67.1200 M     1   SOL  -1.1794
4213    OW  19.1600   0.5900  25.5600 O     1   SOL   0.0000
4214   HW1  18.3700   0.4400  25.0400 H     1   SOL   0.5897
4215   HW2  19.6400  -0.2400  25.5100 H     1   SOL   0.5897
4216    MW  19.1100   0.4600  25.4800 M     1   SOL  -1.1794
4217    OW  22.9900  15.1100  65.8700 O     1   SOL   0.0000
4218   HW1  23.5000  14.3600  66.2000 H     1   SOL   0.5897
4219   HW2  22.2500  14.7100  65.4200 H     1   SOL   0.5897
4220    MW  22.9600  14.9500  65.8600 M     1   SOL  -1.1794
4221    OW   0.5900   8.3300  25.0400 O     1   SOL   0.0000
4222   HW1   0.6200   8.8700  25.8300 H     1   SOL   0.5897
4223   HW2  -0.0700   7.6600  25.2300 H     1   SOL   0.5897
4224    MW   0.5100   8.3100  25.1700 M     1   SOL  -1.1794
4225    OW  19.1500  10.3300  38.6700 O     1   SOL   0.0000
4226   HW1  19.5200  11.2100  38.6300 H     1   SOL   0.5897
4227   HW2  19.9000   9.7500  38.6000 H     1   SOL   0.5897
4228    MW  19.3000  10.3700  38.6500 M     1   SOL  -1.1794
4229    OW  11.4500   4.4200  58.7900 O     1   SOL   0.0000
4230   HW1  10.8700   3.9100  59.3700 H     1   SOL   0.5897
4231   HW2  11.0300   4.3600  57.9300 H     1   SOL   0.5897
4232    MW  11.3100   4.3400  58.7500 M     1   SOL  -1.1794
4233    OW  15.3600   3.2300  56.5600 O     1   SOL   0.0000
4234   HW1  14.5200   3.4900  56.1800 H     1   SOL   0.5897
4235   HW2  15.3300   3.5700  57.4600 H     1   SOL   0.5897
4236    MW  15.2400   3.3100  56.6300 M     1   SOL  -1.1794
4237    OW   4.0100  11.6000  44.3400 O     1   SOL   0.0000
4238   HW1   4.5300  11.0600  44.9400 H     1   SOL   0.5897
4239   HW2   3.8100  11.0200  43.6100 H     1   SOL   0.5897
4240    MW   4.0600  11.4500  44.3300 M     1   SOL  -1.1794
4241    OW  15.2000   1.4900  27.1900 O     1   SOL   0.0000
4242   HW1  15.2500   2.1700  26.5200 H     1   SOL   0.5897
4243   HW2  16.0900   1.1300  27.2400 H     1   SOL   0.5897
4244    MW  15.3300   1.5300  27.1100 M     1   SOL  -1.1794
4245    OW  17.0000   4.4000  50.8700 O     1   SOL   0.0000
4246   HW1  16.4100   5.1600  50.8500 H     1   SOL   0.5897
4247   HW2  17.5200   4.4900  50.0700 H     1   SOL   0.5897
4248    MW  16.9900   4.5200  50.7600 M     1   SOL  -1.1794
4249    OW  20.6700  12.3300  26.8900 O     1   SOL   0.0000
4250   HW1  21.4900  12.4800  27.3600 H     1   SOL   0.5897
4251   HW2  20.2000  13.1600  26.9500 H     1   SOL   0.5897
4252    MW  20.7200  12.4600  26.9600 M     1   SOL  -1.1794
4253    OW   0.1500  16.9900  29.4100 O     1   SOL   0.0000
4254   HW1   0.6500  16.9500  28.6000 H     1   SOL   0.5897
4255   HW2  -0.6700  17.4200  29.1700 H     1   SOL   0.5897
4256    MW   0.1100  17.0400  29.2700 M     1   SOL  -1.1794
4257    OW  11.2300  22.8000  37.4300 O     1   SOL   0.0000
4258   HW1  10.9000  23.6900  37.5900 H     1   SOL   0.5897
4259   HW2  12.0300  22.9400  36.9200 H     1   SOL   0.5897
4260    MW  11.2900  22.9400  37.3800 M     1   SOL  -1.1794
4261    OW   1.6700  15.4400  50.2000 O     1   SOL   0.0000
4262   HW1   1.4100  14.5300  50.3200 H     1   SOL   0.5897
4263   HW2   1.0600  15.7800  49.5400 H     1   SOL   0.5897
4264    MW   1.5500  15.3600  50.1300 M     1   SOL  -1.1794
4265    OW  19.7900  19.2000  24.8900 O     1   SOL   0.0000
4266   HW1  20.3300  18.6000  25.4100 H     1   SOL   0.5897
4267   HW2  20.0000  18.9700  23.9800 H     1   SOL   0.5897
4268    MW  19.8900  19.0900  24.8400 M     1   SOL  -1.1794
4269    OW   4.5200  22.6500  43.9400 O     1   SOL   0.0000
4270   HW1   5.2600  22.1400  43.6200 H     1   SOL   0.5897
4271   HW2   4.9200  23.4300  44.3200 H     1   SOL   0.5897
4272    MW   4.6700  22.6900  43.9500 M     1   SOL  -1.1794
4273    OW   5.5900  11.5200  30.0400 O     1   SOL   0.0000
4274   HW1   6.1200  12.3100  29.9000 H     1   SOL   0.5897
4275   HW2   5.8800  10.9200  29.3500 H     1   SOL   0.5897
4276    MW   5.7000  11.5400  29.9300 M     1   SOL  -1.1794
4277    OW  20.6500  16.3900  31.3400 O     1   SOL   0.0000
4278   HW1  20.9300  16.9000  30.5800 H     1   SOL   0.5897
4279   HW2  19.9200  15.8700  31.0200 H     1   SOL   0.5897
4280    MW  20.5900  16.3900  31.1900 M     1   SOL  -1.1794
4281    OW  23.8300   1.3400  35.8600 O     1   SOL   0.0000
4282   HW1  24.2100   1.9000  36.5400 H     1   SOL   0.5897
4283   HW2  22.8900   1.5000  35.9200 H     1   SOL   0.5897
4284    MW  23.7600   1.4400  35.9600 M     1   SOL  -1.1794
4285    OW   0.4900   2.8000  67.0700 O     1   SOL   0.0000
4286   HW1  -0.4200   3.0700  67.0800 H     1   SOL   0.5897
4287   HW2   0.4600   1.8500  67.2200 H     1   SOL   0.5897
4288    MW   0.3700   2.7100  67.0900 M     1   SOL  -1.1794
4289    OW   5.5600  15.2000  69.4900 O     1   SOL   0.0000
4290   HW1   5.0800  14.5900  68.9200 H     1   SOL   0.5897
4291   HW2   6.4800  15.0300  69.2900 H     1   SOL   0.5897
4292    MW   5.6200  15.0900  69.3900 M     1   SOL  -1.1794
4293    OW  15.7600   9.8600  72.3500 O     1   SOL   0.0000
4294   HW1  16.2100   9.2300  71.7800 H     1   SOL   0.5897
4295   HW2  16.4600  10.4100  72.7000 H     1   SOL   0.5897
4296    MW  15.9200   9.8500  72.3200 M     1   SOL  -1.1794
4297    OW  14.7800   3.3100  31.3800 O     1   SOL   0.0000
4298   HW1  15.1100   3.2800  30.4800 H     1   SOL   0.5897
4299   HW2  14.2000   2.5500  31.4500 H     1   SOL   0.5897
4300    MW  14.7500   3.2000  31.2700 M     1   SOL  -1.1794
4301    OW  17.7100  22.4900  35.7600 O     1   SOL   0.0000
4302   HW1  17.7200  23.4400  35.8700 H     1   SOL   0.5897
4303   HW2  17.1200  22.1800  36.4500 H     1   SOL   0.5897
4304    MW  17.6300  22.5700  35.8700 M     1   SOL  -1.1794
4305    OW  11.7100  19.3200  36.8400 O     1   SOL   0.0000
4306   HW1  10.9400  19.7000  36.4200 H     1   SOL   0.5897
4307   HW2  11.8300  19.8400  37.6300 H     1   SOL   0.5897
4308    MW  11.6200  19.4400  36.8900 M     1   SOL  -1.1794
4309    OW   3.0900  18.7500  46.2700 O     1   SOL   0.0000
4310   HW1   3.5100  19.6000  46.3900 H     1   SOL   0.5897
4311   HW2   2.6200  18.5900  47.0900 H     1   SOL   0.5897
4312    MW   3.0800  18.8400  46.3900 M     1   SOL  -1.1794
4313    OW  21.9600   1.7300  31.8900 O     1   SOL   0.0000
4314   HW1  21.6800   1.6100  32.8000 H     1   SOL   0.5897
4315   HW2  22.0500   0.8400  31.5500 H     1   SOL   0.5897
4316    MW  21.9400   1.5900  31.9700 M     1   SOL  -1.1794
4317    OW  22.1400  18.4100  37.0100 O     1   SOL   0.0000
4318   HW1  21.5100  17.7400  37.2800 H     1   SOL   0.5897
4319   HW2  22.9800  18.1000  37.3500 H     1   SOL   0.5897
4320    MW  22.1600  18.2800  37.0900 M     1   SOL  -1.1794
4321    OW   1.6800  21.8800  32.7700 O     1   SOL   0.0000
4322   HW1   2.6100  21.6500  32.7000 H     1   SOL   0.5897
4323   HW2   1.5900  22.6700  32.2300 H     1   SOL   0.5897
4324    MW   1.7900  21.9500  32.6800 M     1   SOL  -1.1794
4325    OW   4.8500  21.9200  54.8600 O     1   SOL   0.0000
4326   HW1   5.8100  21.9400  54.9200 H     1   SOL   0.5897
4327   HW2   4.5700  22.7300  55.2900 H     1   SOL   0.5897
4328    MW   4.9400  22.0300  54.9300 M     1   SOL  -1.1794
4329    OW  14.2300   9.3800  52.0200 O     1   SOL   0.0000
4330   HW1  14.4700   9.1800  51.1100 H     1   SOL   0.5897
4331   HW2  13.4400   9.9200  51.9400 H     1   SOL   0.5897
4332    MW  14.1500   9.4300  51.8900 M     1   SOL  -1.1794
4333    OW   5.5200  12.9700  67.5100 O     1   SOL   0.0000
4334   HW1   5.1400  13.0800  66.6400 H     1   SOL   0.5897
4335   HW2   4.8900  12.4300  67.9800 H     1   SOL   0.5897
4336    MW   5.3900  12.9100  67.4500 M     1   SOL  -1.1794
4337    OW  11.5500  17.6200  60.1700 O     1   SOL   0.0000
4338   HW1  11.6500  17.0900  60.9600 H     1   SOL   0.5897
4339   HW2  10.6900  18.0200  60.2500 H     1   SOL   0.5897
4340    MW  11.4500  17.6000  60.2900 M     1   SOL  -1.1794
4341    OW   8.3300  14.4800  55.2800 O     1   SOL   0.0000
4342   HW1   7.7800  14.5700  56.0600 H     1   SOL   0.5897
4343   HW2   9.2000  14.2700  55.6300 H     1   SOL   0.5897
4344    MW   8.3700  14.4600  55.4400 M     1   SOL  -1.1794
4345    OW   7.6800  10.7900  60.1100 O     1   SOL   0.0000
4346   HW1   7.1800  11.2800  59.4600 H     1   SOL   0.5897
4347   HW2   8.5800  11.1100  60.0300 H     1   SOL   0.5897
4348    MW   7.7300  10.9000  60.0100 M     1   SOL  -1.1794
4349    OW   4.3400  20.8000  32.9700 O     1   SOL   0.0000
4350   HW1   4.3900  19.8500  32.8600 H     1   SOL   0.5897
4351   HW2   4.6800  21.1500  32.1500 H     1   SOL   0.5897
4352    MW   4.3900  20.7200  32.8400 M     1   SOL  -1.1794
4353    OW  22.3500  16.9700  68.0100 O     1   SOL   0.0000
4354   HW1  23.1200  17.5400  68.0100 H     1   SOL   0.5897
4355   HW2  22.5200  16.3300  67.3200 H     1   SOL   0.5897
4356    MW  22.4700  16.9600  67.9200 M     1   SOL  -1.1794
4357    OW   7.5400  19.3400  69.7200 O     1   SOL   0.0000
4358   HW1   7.7100  20.0000  69.0400 H     1   SOL   0.5897
4359   HW2   6.8100  18.8300  69.3800 H     1   SOL   0.5897
4360    MW   7.4700  19.3600  69.5800 M     1   SOL  -1.1794
4361    OW   4.9300   6.7500  25.2300 O     1   SOL   0.0000
4362   HW1   5.7500   6.8400  25.7100 H     1   SOL   0.5897
4363   HW2   4.7200   5.8200  25.2900 H     1   SOL   0.5897
4364    MW   5.0100   6.6400  25.3000 M     1   SOL  -1.1794
4365    OW  17.9900   7.4700  34.7300 O     1   SOL   0.0000
4366   HW1  17.8300   6.9600  35.5300 H     1   SOL   0.5897
4367   HW2  18.4400   6.8600  34.1500 H     1   SOL   0.5897
4368    MW  18.0300   7.3200  34.7600 M     1   SOL  -1.1794
4369    OW  22.3400   1.7400  47.8700 O     1   SOL   0.0000
4370   HW1  22.7000   0.9600  48.2900 H     1   SOL   0.5897
4371   HW2  22.5700   2.4600  48.4600 H     1   SOL   0.5897
4372    MW  22.4200   1.7400  48.0100 M     1   SOL  -1.1794
4373    OW  23.7600  14.1100  29.9800 O     1   SOL   0.0000
4374   HW1  23.2500  13.8300  30.7400 H     1   SOL   0.5897
4375   HW2  23.6800  15.0600  29.9800 H     1   SOL   0.5897
4376    MW  23.6800  14.2000  30.0800 M     1   SOL  -1.1794
4377    OW  13.9700  22.6100  26.7200 O     1   SOL   0.0000
4378   HW1  13.9200  22.3600  25.8000 H     1   SOL   0.5897
4379   HW2  14.2500  23.5200  26.7100 H     1   SOL   0.5897
4380    MW  14.0000  22.7000  26.6000 M     1   SOL  -1.1794
4381    OW   0.2900  22.7200  42.6500 O     1   SOL   0.0000
4382   HW1   1.2100  22.8700  42.4400 H     1   SOL   0.5897
4383   HW2   0.0200  22.0100  42.0600 H     1   SOL   0.5897
4384    MW   0.3800  22.6400  42.5400 M     1   SOL  -1.1794
4385    OW  21.3800  16.2400  70.5200 O     1   SOL   0.0000
4386   HW1  21.7300  16.5700  69.6900 H     1   SOL   0.5897
4387   HW2  21.4800  16.9800  71.1200 H     1   SOL   0.5897
4388    MW  21.4400  16.3900  70.4900 M     1   SOL  -1.1794
4389    OW  13.1000  17.7700  66.5000 O     1   SOL   0.0000
4390   HW1  12.5700  17.2200  65.9300 H     1   SOL   0.5897
4391   HW2  13.3000  17.2000  67.2500 H     1   SOL   0.5897
4392    MW  13.0600  17.6200  66.5200 M     1   SOL  -1.1794
4393    OW  19.4000  10.4100  44.4800 O     1   SOL   0.0000
4394   HW1  18.5400  10.8400  44.4700 H     1   SOL   0.5897
4395   HW2  19.4400   9.9500  43.6500 H     1   SOL   0.5897
4396    MW  19.2900  10.4100  44.3700 M     1   SOL  -1.1794
4397    OW   7.3100  13.8300  29.9000 O     1   SOL   0.0000
4398   HW1   7.7000  13.8100  30.7700 H     1   SOL   0.5897
4399   HW2   7.0000  14.7300  29.7900 H     1   SOL   0.5897
4400    MW   7.3200  13.9500  30.0000 M     1   SOL  -1.1794
4401    OW  22.2600  23.3300  67.7500 O     1   SOL   0.0000
4402   HW1  22.3200  23.9300  68.5000 H     1   SOL   0.5897
4403   HW2  21.7200  23.8000  67.1200 H     1   SOL   0.5897
4404    MW  22.2000  23.4800  67.7700 M     1   SOL  -1.1794
4405    OW  13.4800   5.4200  60.3100 O     1   SOL   0.0000
4406   HW1  14.3000   5.2400  59.8500 H     1   SOL   0.5897
4407   HW2  12.7900   5.1600  59.6900 H     1   SOL   0.5897
4408    MW  13.5000   5.3600  60.1600 M     1   SOL  -1.1794
4409    OW  14.1500   2.4600  36.6200 O     1   SOL   0.0000
4410   HW1  14.2500   1.5600  36.3000 H     1   SOL   0.5897
4411   HW2  13.8700   2.9600  35.8600 H     1   SOL   0.5897
4412    MW  14.1300   2.4100  36.4800 M     1   SOL  -1.1794
4413    OW  23.3100  12.6900  27.4300 O     1   SOL   0.0000
4414   HW1  23.4400  13.1600  28.2500 H     1   SOL   0.5897
4415   HW2  23.1500  13.3700  26.7800 H     1   SOL   0.5897
4416    MW  23.3000  12.8400  27.4500 M     1   SOL  -1.1794
4417    OW   6.1200   7.5500  29.6500 O     1   SOL   0.0000
4418   HW1   5.3300   7.7700  30.1400 H     1   SOL   0.5897
4419   HW2   6.1200   8.1600  28.9100 H     1   SOL   0.5897
4420    MW   6.0200   7.6600  29.6200 M     1   SOL  -1.1794
4421    OW  21.6400   3.4100  55.5700 O     1   SOL   0.0000
4422   HW1  21.2300   3.7300  56.3800 H     1   SOL   0.5897
4423   HW2  21.5700   4.1500  54.9700 H     1   SOL   0.5897
4424    MW  21.5700   3.5500  55.6000 M     1   SOL  -1.1794
4425    OW   6.3700  21.5000  64.1900 O     1   SOL   0.0000
4426   HW1   5.7400  22.0600  63.7300 H     1   SOL   0.5897
4427   HW2   6.7900  22.0900  64.8200 H     1   SOL   0.5897
4428    MW   6.3400  21.6600  64.2100 M     1   SOL  -1.1794
4429    OW  19.6600  16.3500  57.5400 O     1   SOL   0.0000
4430   HW1  18.7000  16.4100  57.4900 H     1   SOL   0.5897
4431   HW2  19.8400  15.9700  58.4000 H     1   SOL   0.5897
4432    MW  19.5600  16.3100  57.6500 M     1   SOL  -1.1794
4433    OW  14.9800  23.7400  69.3900 O     1   SOL   0.0000
4434   HW1  14.7800  22.8100  69.5200 H     1   SOL   0.5897
4435   HW2  15.9200  23.8000  69.5700 H     1   SOL   0.5897
4436    MW  15.0800  23.6200  69.4300 M     1   SOL  -1.1794
4437    OW   8.1900   6.9800  49.7800 O     1   SOL   0.0000
4438   HW1   8.0400   7.4500  50.6000 H     1   SOL   0.5897
4439   HW2   7.3700   6.5100  49.6100 H     1   SOL   0.5897
4440    MW   8.0600   6.9800  49.8700 M     1   SOL  -1.1794
4441    OW  22.4200   0.9300  70.0200 O     1   SOL   0.0000
4442   HW1  21.8400   0.6200  70.7200 H     1   SOL   0.5897
4443   HW2  23.2800   0.5800  70.2500 H     1   SOL   0.5897
4444    MW  22.4600   0.8400  70.1400 M     1   SOL  -1.1794
4445    OW  17.1300   8.3500  58.8700 O     1   SOL   0.0000
4446   HW1  16.6300   8.1900  59.6700 H     1   SOL   0.5897
4447   HW2  16.5100   8.7900  58.2800 H     1   SOL   0.5897
4448    MW  16.9800   8.3900  58.8900 M     1   SOL  -1.1794
4449    OW   9.6500   4.3700  49.4200 O     1   SOL   0.0000
4450   HW1   9.1100   5.1100  49.6700 H     1   SOL   0.5897
4451   HW2  10.3200   4.7400  48.8500 H     1   SOL   0.5897
4452    MW   9.6700   4.5200  49.3800 M     1   SOL  -1.1794
4453    OW   6.0300   1.5100  47.5300 O     1   SOL   0.0000
4454   HW1   5.8500   0.6100  47.8000 H     1   SOL   0.5897
4455   HW2   5.6100   2.0500  48.1900 H     1   SOL   0.5897
4456    MW   5.9500   1.4600  47.6500 M     1   SOL  -1.1794
4457    OW   1.4300   5.1800  65.5900 O     1   SOL   0.0000
4458   HW1   2.2200   5.4900  66.0300 H     1   SOL   0.5897
4459   HW2   1.1800   4.4000  66.0700 H     1   SOL   0.5897
4460    MW   1.5000   5.1200  65.7100 M     1   SOL  -1.1794
4461    OW   2.7800   7.1000  68.0700 O     1   SOL   0.0000
4462   HW1   1.9900   7.0200  68.6100 H     1   SOL   0.5897
4463   HW2   3.4700   7.3300  68.6900 H     1   SOL   0.5897
4464    MW   2.7600   7.1200  68.2300 M     1   SOL  -1.1794
4465    OW  14.5600  19.4700  25.2600 O     1   SOL   0.0000
4466   HW1  14.7300  19.6600  26.1900 H     1   SOL   0.5897
4467   HW2  13.9000  18.7900  25.2800 H     1   SOL   0.5897
4468    MW  14.5000  19.4100  25.3900 M     1   SOL  -1.1794
4469    OW  20.3200  20.2600  29.4700 O     1   SOL   0.0000
4470   HW1  19.3800  20.4000  29.3300 H     1   SOL   0.5897
4471   HW2  20.4500  20.4300  30.4100 H     1   SOL   0.5897
4472    MW  20.2100  20.3000  29.5800 M     1   SOL  -1.1794
4473    OW  12.0700  12.6100  58.3900 O     1   SOL   0.0000
4474   HW1  12.7000  13.3100  58.5500 H     1   SOL   0.5897
4475   HW2  11.5300  12.9300  57.6700 H     1   SOL   0.5897
4476    MW  12.0800  12.7400  58.3100 M     1   SOL  -1.1794
4477    OW  20.3100  17.0900  61.9300 O     1   SOL   0.0000
4478   HW1  21.0300  17.5000  61.4600 H     1   SOL   0.5897
4479   HW2  19.5600  17.6700  61.7900 H     1   SOL   0.5897
4480    MW  20.3100  17.2200  61.8500 M     1   SOL  -1.1794
4481    OW  20.3000  22.2600  34.7800 O     1   SOL   0.0000
4482   HW1  20.7200  21.4400  35.0400 H     1   SOL   0.5897
4483   HW2  19.4500  22.2500  35.2100 H     1   SOL   0.5897
4484    MW  20.2400  22.1500  34.8700 M     1   SOL  -1.1794
4485    OW  16.6600   5.3800  55.2500 O     1   SOL   0.0000
4486   HW1  16.2500   4.5500  55.5100 H     1   SOL   0.5897
4487   HW2  17.2400   5.1400  54.5300 H     1   SOL   0.5897
4488    MW  16.6800   5.2400  55.1900 M     1   SOL  -1.1794
4489    OW   5.1100   1.8000  27.9500 O     1   SOL   0.0000
4490   HW1   5.9800   1.9800  28.3000 H     1   SOL   0.5897
4491   HW2   4.9000   2.5800  27.4300 H     1   SOL   0.5897
4492    MW   5.2000   1.9300  27.9300 M     1   SOL  -1.1794
4493    OW   1.1500  10.6300  72.0400 O     1   SOL   0.0000
4494   HW1   1.7500  11.3700  71.9800 H     1   SOL   0.5897
4495   HW2   1.3900  10.1800  72.8500 H     1   SOL   0.5897
4496    MW   1.2600  10.6700  72.1400 M     1   SOL  -1.1794
4497    OW  20.4300   7.7100  45.6100 O     1   SOL   0.0000
4498   HW1  20.4300   7.9500  46.5300 H     1   SOL   0.5897
4499   HW2  20.0900   8.4800  45.1600 H     1   SOL   0.5897
4500    MW  20.3900   7.8400  45.6700 M     1   SOL  -1.1794
4501    OW  19.1700  18.8600  47.5700 O     1   SOL   0.0000
4502   HW1  18.9800  19.3400  46.7700 H     1   SOL   0.5897
4503   HW2  18.6100  19.2500  48.2400 H     1   SOL   0.5897
4504    MW  19.0700  18.9700  47.5600 M     1   SOL  -1.1794
4505    OW  21.1800   5.0000  53.2400 O     1   SOL   0.0000
4506   HW1  21.9900   4.5600  52.9500 H     1   SOL   0.5897
4507   HW2  20.8200   5.3700  52.4400 H     1   SOL   0.5897
4508    MW  21.2400   4.9900  53.0900 M     1   SOL  -1.1794
4509    OW  14.3200   8.5200  49.5500 O     1   SOL   0.0000
4510   HW1  13.5500   8.4000  48.9900 H     1   SOL   0.5897
4511   HW2  14.9300   9.0100  49.0000 H     1   SOL   0.5897
4512    MW  14.3000   8.5700  49.4000 M     1   SOL  -1.1794
4513    OW  11.7600   5.2500  48.0800 O     1   SOL   0.0000
4514   HW1  12.3700   4.8300  48.6800 H     1   SOL   0.5897
4515   HW2  12.0200   6.1700  48.0600 H     1   SOL   0.5897
4516    MW  11.8800   5.3200  48.1600 M     1   SOL  -1.1794
4517    OW  22.4200   8.8700  63.6600 O     1   SOL   0.0000
4518   HW1  21.4700   8.6900  63.6900 H     1   SOL   0.5897
4519   HW2  22.7700   8.3900  64.4100 H     1   SOL   0.5897
4520    MW  22.3400   8.7800  63.7700 M     1   SOL  -1.1794
4521    OW   4.1400  15.8400  30.8600 O     1   SOL   0.0000
4522   HW1   3.7800  16.5500  31.3800 H     1   SOL   0.5897
4523   HW2   4.8600  16.2400  30.3700 H     1   SOL   0.5897
4524    MW   4.1900  15.9900  30.8600 M     1   SOL  -1.1794
4525    OW   4.4800   5.6500  43.1600 O     1   SOL   0.0000
4526   HW1   5.3800   5.5100  42.8700 H     1   SOL   0.5897
4527   HW2   4.5100   6.4500  43.6800 H     1   SOL   0.5897
4528    MW   4.6100   5.7400  43.1900 M     1   SOL  -1.1794
4529    OW  20.3500   4.5700  57.6400 O     1   SOL   0.0000
4530   HW1  19.4800   4.9600  57.7700 H     1   SOL   0.5897
4531   HW2  20.2900   3.7000  58.0400 H     1   SOL   0.5897
4532    MW  20.2300   4.5100  57.7100 M     1   SOL  -1.1794
4533    OW   6.8200   4.2700  52.0800 O     1   SOL   0.0000
4534   HW1   7.0200   4.8900  52.7900 H     1   SOL   0.5897
4535   HW2   6.0100   3.8400  52.3700 H     1   SOL   0.5897
4536    MW   6.7400   4.3000  52.2200 M     1   SOL  -1.1794
4537    OW   2.0500  18.7100  66.0600 O     1   SOL   0.0000
4538   HW1   1.6200  18.0800  65.4800 H     1   SOL   0.5897
4539   HW2   2.2800  19.4400  65.4900 H     1   SOL   0.5897
4540    MW   2.0200  18.7300  65.9100 M     1   SOL  -1.1794
4541    OW  22.3400   7.7200  41.0600 O     1   SOL   0.0000
4542   HW1  23.1100   8.2900  41.1100 H     1   SOL   0.5897
4543   HW2  22.1900   7.4500  41.9700 H     1   SOL   0.5897
4544    MW  22.4300   7.7600  41.1900 M     1   SOL  -1.1794
4545    OW   1.0700   0.1300  67.4300 O     1   SOL   0.0000
4546   HW1   1.2400   0.1100  66.4800 H     1   SOL   0.5897
4547   HW2   0.2600  -0.3700  67.5300 H     1   SOL   0.5897
4548    MW   0.9800   0.0600  67.3200 M     1   SOL  -1.1794
4549    OW  18.3000  17.6000  67.7100 O     1   SOL   0.0000
4550   HW1  18.6600  17.1900  68.5000 H     1   SOL   0.5897
4551   HW2  19.0300  18.1000  67.3500 H     1   SOL   0.5897
4552    MW  18.4500  17.6100  67.7700 M     1   SOL  -1.1794
4553    OW  18.4100   5.7000  45.8100 O     1   SOL   0.0000
4554   HW1  17.6900   6.1000  45.3300 H     1   SOL   0.5897
4555   HW2  19.1200   6.3400  45.7700 H     1   SOL   0.5897
4556    MW  18.4100   5.8400  45.7400 M     1   SOL  -1.1794
4557    OW   8.5300   0.7000  32.5900 O     1   SOL   0.0000
4558   HW1   8.6300  -0.0300  33.2000 H     1   SOL   0.5897
4559   HW2   8.2000   1.4200  33.1300 H     1   SOL   0.5897
4560    MW   8.5000   0.6900  32.7400 M     1   SOL  -1.1794
4561    OW  11.6800   1.5800  58.8200 O     1   SOL   0.0000
4562   HW1  12.0300   1.3200  59.6700 H     1   SOL   0.5897
4563   HW2  12.0900   2.4300  58.6500 H     1   SOL   0.5897
4564    MW  11.7800   1.6600  58.9100 M     1   SOL  -1.1794
4565    OW   3.4800  18.1000  32.7700 O     1   SOL   0.0000
4566   HW1   3.2900  17.5400  33.5200 H     1   SOL   0.5897
4567   HW2   2.6300  18.4500  32.5100 H     1   SOL   0.5897
4568    MW   3.3400  18.0700  32.8400 M     1   SOL  -1.1794
4569    OW  11.2700  12.6600  67.8800 O     1   SOL   0.0000
4570   HW1  12.1500  12.5600  68.2500 H     1   SOL   0.5897
4571   HW2  11.0400  11.7900  67.5500 H     1   SOL   0.5897
4572    MW  11.3600  12.5300  67.8900 M     1   SOL  -1.1794
4573    OW   3.7700  11.0000  26.6200 O     1   SOL   0.0000
4574   HW1   3.6700  10.2900  25.9900 H     1   SOL   0.5897
4575   HW2   2.8900  11.1200  26.9800 H     1   SOL   0.5897
4576    MW   3.6400  10.9200  26.5900 M     1   SOL  -1.1794
4577    OW  13.0900   8.8400  68.2200 O     1   SOL   0.0000
4578   HW1  13.0200   7.9000  68.3800 H     1   SOL   0.5897
4579   HW2  13.2300   9.2200  69.0900 H     1   SOL   0.5897
4580    MW  13.1000   8.7700  68.3600 M     1   SOL  -1.1794
4581    OW  12.7200   3.7700  55.3300 O     1   SOL   0.0000
4582   HW1  13.0100   2.8800  55.1000 H     1   SOL   0.5897
4583   HW2  13.1000   4.3200  54.6500 H     1   SOL   0.5897
4584    MW  12.8100   3.7200  55.2100 M     1   SOL  -1.1794
4585    OW  19.0600  11.2300  62.0700 O     1   SOL   0.0000
4586   HW1  18.6800  10.5400  62.6100 H     1   SOL   0.5897
4587   HW2  19.1800  10.8300  61.2100 H     1   SOL   0.5897
4588    MW  19.0200  11.0800  62.0200 M     1   SOL  -1.1794
4589    OW  17.1600  20.2000  70.9000 O     1   SOL   0.0000
4590   HW1  17.0200  19.7700  70.0600 H     1   SOL   0.5897
4591   HW2  17.7600  19.6100  71.3700 H     1   SOL   0.5897
4592    MW  17.2200  20.0600  70.8500 M     1   SOL  -1.1794
4593    OW   5.4100  22.9400  48.2800 O     1   SOL   0.0000
4594   HW1   6.2700  22.5800  48.4500 H     1   SOL   0.5897
4595   HW2   4.8800  22.6700  49.0300 H     1   SOL   0.5897
4596    MW   5.4500  22.8600  48.4000 M     1   SOL  -1.1794
4597    OW   4.4300   2.4300  51.9700 O     1   SOL   0.0000
4598   HW1   4.6900   1.5200  52.0900 H     1   SOL   0.5897
4599   HW2   4.6800   2.6300  51.0700 H     1   SOL   0.5897
4600    MW   4.5000   2.3400  51.8700 M     1   SOL  -1.1794
4601    OW  19.8400   6.2600  50.9300 O     1   SOL   0.0000
4602   HW1  19.0400   6.6500  51.2900 H     1   SOL   0.5897
4603   HW2  19.6000   5.9900  50.0400 H     1   SOL   0.5897
4604    MW  19.7000   6.2800  50.8600 M     1   SOL  -1.1794
4605    OW  12.0300  10.8400  52.0600 O     1   SOL   0.0000
4606   HW1  11.6500  10.9100  51.1900 H     1   SOL   0.5897
4607   HW2  11.3500  10.4500  52.6000 H     1   SOL   0.5897
4608    MW  11.8900  10.7900  52.0100 M     1   SOL  -1.1794
@<TRIPOS>BOND
    1     1     2     1
    2     1     3     1
    3     2     3     1
    4     5     6     1
    5     5     7     1
    6     6     7     1
    7     9    10     1
    8     9    11     1
    9    10    11     1
   10    13    14     1
   11    13    15     1
   12    14    15     1
   13    17    18     1
   14    17    19     1
   15    18    19     1
   16    21    22     1
   17    21    23     1
   18    22    23     1
   19    25    26     1
   20    25    27     1
   21    26    27     1
   22    29    30     1
   23    29    31     1
   24    30    31     1
   25    33    34     1
   26    33    35     1
   27    34    35     1
   28    37    38     1
   29    37    39     1
   30    38    39     1
   31    41    42     1
   32    41    43     1
   33    42    43     1
   34    45    46     1
   35    45    47     1
   36    46    47     1
   37    49    50     1
   38    49    51     1
   39    50    51     1
   40    53    54     1
   41    53    55     1
   42    54    55     1
   43    57    58     1
   44    57    59     1
   45    58    59     1
   46    61    62     1
   47    61    63     1
   48    62    63     1
   49    65    66     1
   50    65    67     1
   51    66    67     1
   52    69    70     1
   53    69    71     1
   54    70    71     1
   55    73    74     1
   56    73    75     1
   57    74    75     1
   58    77    78     1
   59    77    79     1
   60    78    79     1
   61    81    82     1
   62    81    83     1
   63    82    83     1
   64    85    86     1
   65    85    87     1
   66    86    87     1
   67    89    90     1
   68    89    91     1
   69    90    91     1
   70    93    94     1
   71    93    95     1
   72    94    95     1
   73    97    98     1
   74    97    99     1
   75    98    99     1
   76   101   102     1
   77   101   103     1
   78   102   103     1
   79   105   106     1
   80   105   107     1
   81   106   107     1
   82   109   110     1
   83   109   111     1
   84   110   111     1
   85   113   114     1
   86   113   115     1
   87   114   115     1
   88   117   118     1
   89   117   119     1
   90   118   119     1
   91   121   122     1
   92   121   123     1
   93   122   123     1
   94   125   126     1
   95   125   127     1
   96   126   127     1
   97   129   130     1
   98   129   131     1
   99   130   131     1
  100   133   134     1
  101   133   135     1
  102   134   135     1
  103   137   138     1
  104   137   139     1
  105   138   139     1
  106   141   142     1
  107   141   143     1
  108   142   143     1
  109   145   146     1
  110   145   147     1
  111   146   147     1
  112   149   150     1
  113   149   151     1
  114   150   151     1
  115   153   154     1
  116   153   155     1
  117   154   155     1
  118   157   158     1
  119   157   159     1
  120   158   159     1
  121   161   162     1
  122   161   163     1
  123   162   163     1
  124   165   166     1
  125   165   167     1
  126   166   167     1
  127   169   170     1
  128   169   171     1
  129   170   171     1
  130   173   174     1
  131   173   175     1
  132   174   175     1
  133   177   178     1
  134   177   179     1
  135   178   179     1
  136   181   182     1
  137   181   183     1
  138   182   183     1
  139   185   186     1
  140   185   187     1
  141   186   187     1
  142   189   190     1
  143   189   191     1
  144   190   191     1
  145   193   194     1
  146   193   195     1
  147   194   195     1
  148   197   198     1
  149   197   199     1
  150   198   199     1
  151   201   202     1
  152   201   203     1
  153   202   203     1
  154   205   206     1
  155   205   207     1
  156   206   207     1
  157   209   210     1
  158   209   211     1
  159   210   211     1
  160   213   214     1
  161   213   215     1
  162   214   215     1
  163   217   218     1
  164   217   219     1
  165   218   219     1
  166   221   222     1
  167   221   223     1
  168   222   223     1
  169   225   226     1
  170   225   227     1
  171   226   227     1
  172   229   230     1
  173   229   231     1
  174   230   231     1
  175   233   234     1
  176   233   235     1
  177   234   235     1
  178   237   238     1
  179   237   239     1
  180   238   239     1
  181   241   242     1
  182   241   243     1
  183   242   243     1
  184   245   246     1
  185   245   247     1
  186   246   247     1
  187   249   250     1
  188   249   251     1
  189   250   251     1
  190   253   254     1
  191   253   255     1
  192   254   255     1
  193   257   258     1
  194   257   259     1
  195   258   259     1
  196   261   262     1
  197   261   263     1
  198   262   263     1
  199   265   266     1
  200   265   267     1
  201   266   267     1
  202   269   270     1
  203   269   271     1
  204   270   271     1
  205   273   274     1
  206   273   275     1
  207   274   275     1
  208   277   278     1
  209   277   279     1
  210   278   279     1
  211   281   282     1
  212   281   283     1
  213   282   283     1
  214   285   286     1
  215   285   287     1
  216   286   287     1
  217   289   290     1
  218   289   291     1
  219   290   291     1
  220   293   294     1
  221   293   295     1
  222   294   295     1
  223   297   298     1
  224   297   299     1
  225   298   299     1
  226   301   302     1
  227   301   303     1
  228   302   303     1
  229   305   306     1
  230   305   307     1
  231   306   307     1
  232   309   310     1
  233   309   311     1
  234   310   311     1
  235   313   314     1
  236   313   315     1
  237   314   315     1
  238   317   318     1
  239   317   319     1
  240   318   319     1
  241   321   322     1
  242   321   323     1
  243   322   323     1
  244   325   326     1
  245   325   327     1
  246   326   327     1
  247   329   330     1
  248   329   331     1
  249   330   331     1
  250   333   334     1
  251   333   335     1
  252   334   335     1
  253   337   338     1
  254   337   339     1
  255   338   339     1
  256   341   342     1
  257   341   343     1
  258   342   343     1
  259   345   346     1
  260   345   347     1
  261   346   347     1
  262   349   350     1
  263   349   351     1
  264   350   351     1
  265   353   354     1
  266   353   355     1
  267   354   355     1
  268   357   358     1
  269   357   359     1
  270   358   359     1
  271   361   362     1
  272   361   363     1
  273   362   363     1
  274   365   366     1
  275   365   367     1
  276   366   367     1
  277   369   370     1
  278   369   371     1
  279   370   371     1
  280   373   374     1
  281   373   375     1
  282   374   375     1
  283   377   378     1
  284   377   379     1
  285   378   379     1
  286   381   382     1
  287   381   383     1
  288   382   383     1
  289   385   386     1
  290   385   387     1
  291   386   387     1
  292   389   390     1
  293   389   391     1
  294   390   391     1
  295   393   394     1
  296   393   395     1
  297   394   395     1
  298   397   398     1
  299   397   399     1
  300   398   399     1
  301   401   402     1
  302   401   403     1
  303   402   403     1
  304   405   406     1
  305   405   407     1
  306   406   407     1
  307   409   410     1
  308   409   411     1
  309   410   411     1
  310   413   414     1
  311   413   415     1
  312   414   415     1
  313   417   418     1
  314   417   419     1
  315   418   419     1
  316   421   422     1
  317   421   423     1
  318   422   423     1
  319   425   426     1
  320   425   427     1
  321   426   427     1
  322   429   430     1
  323   429   431     1
  324   430   431     1
  325   433   434     1
  326   433   435     1
  327   434   435     1
  328   437   438     1
  329   437   439     1
  330   438   439     1
  331   441   442     1
  332   441   443     1
  333   442   443     1
  334   445   446     1
  335   445   447     1
  336   446   447     1
  337   449   450     1
  338   449   451     1
  339   450   451     1
  340   453   454     1
  341   453   455     1
  342   454   455     1
  343   457   458     1
  344   457   459     1
  345   458   459     1
  346   461   462     1
  347   461   463     1
  348   462   463     1
  349   465   466     1
  350   465   467     1
  351   466   467     1
  352   469   470     1
  353   469   471     1
  354   470   471     1
  355   473   474     1
  356   473   475     1
  357   474   475     1
  358   477   478     1
  359   477   479     1
  360   478   479     1
  361   481   482     1
  362   481   483     1
  363   482   483     1
  364   485   486     1
  365   485   487     1
  366   486   487     1
  367   489   490     1
  368   489   491     1
  369   490   491     1
  370   493   494     1
  371   493   495     1
  372   494   495     1
  373   497   498     1
  374   497   499     1
  375   498   499     1
  376   501   502     1
  377   501   503     1
  378   502   503     1
  379   505   506     1
  380   505   507     1
  381   506   507     1
  382   509   510     1
  383   509   511     1
  384   510   511     1
  385   513   514     1
  386   513   515     1
  387   514   515     1
  388   517   518     1
  389   517   519     1
  390   518   519     1
  391   521   522     1
  392   521   523     1
  393   522   523     1
  394   525   526     1
  395   525   527     1
  396   526   527     1
  397   529   530     1
  398   529   531     1
  399   530   531     1
  400   533   534     1
  401   533   535     1
  402   534   535     1
  403   537   538     1
  404   537   539     1
  405   538   539     1
  406   541   542     1
  407   541   543     1
  408   542   543     1
  409   545   546     1
  410   545   547     1
  411   546   547     1
  412   549   550     1
  413   549   551     1
  414   550   551     1
  415   553   554     1
  416   553   555     1
  417   554   555     1
  418   557   558     1
  419   557   559     1
  420   558   559     1
  421   561   562     1
  422   561   563     1
  423   562   563     1
  424   565   566     1
  425   565   567     1
  426   566   567     1
  427   569   570     1
  428   569   571     1
  429   570   571     1
  430   573   574     1
  431   573   575     1
  432   574   575     1
  433   577   578     1
  434   577   579     1
  435   578   579     1
  436   581   582     1
  437   581   583     1
  438   582   583     1
  439   585   586     1
  440   585   587     1
  441   586   587     1
  442   589   590     1
  443   589   591     1
  444   590   591     1
  445   593   594     1
  446   593   595     1
  447   594   595     1
  448   597   598     1
  449   597   599     1
  450   598   599     1
  451   601   602     1
  452   601   603     1
  453   602   603     1
  454   605   606     1
  455   605   607     1
  456   606   607     1
  457   609   610     1
  458   609   611     1
  459   610   611     1
  460   613   614     1
  461   613   615     1
  462   614   615     1
  463   617   618     1
  464   617   619     1
  465   618   619     1
  466   621   622     1
  467   621   623     1
  468   622   623     1
  469   625   626     1
  470   625   627     1
  471   626   627     1
  472   629   630     1
  473   629   631     1
  474   630   631     1
  475   633   634     1
  476   633   635     1
  477   634   635     1
  478   637   638     1
  479   637   639     1
  480   638   639     1
  481   641   642     1
  482   641   643     1
  483   642   643     1
  484   645   646     1
  485   645   647     1
  486   646   647     1
  487   649   650     1
  488   649   651     1
  489   650   651     1
  490   653   654     1
  491   653   655     1
  492   654   655     1
  493   657   658     1
  494   657   659     1
  495   658   659     1
  496   661   662     1
  497   661   663     1
  498   662   663     1
  499   665   666     1
  500   665   667     1
  501   666   667     1
  502   669   670     1
  503   669   671     1
  504   670   671     1
  505   673   674     1
  506   673   675     1
  507   674   675     1
  508   677   678     1
  509   677   679     1
  510   678   679     1
  511   681   682     1
  512   681   683     1
  513   682   683     1
  514   685   686     1
  515   685   687     1
  516   686   687     1
  517   689   690     1
  518   689   691     1
  519   690   691     1
  520   693   694     1
  521   693   695     1
  522   694   695     1
  523   697   698     1
  524   697   699     1
  525   698   699     1
  526   701   702     1
  527   701   703     1
  528   702   703     1
  529   705   706     1
  530   705   707     1
  531   706   707     1
  532   709   710     1
  533   709   711     1
  534   710   711     1
  535   713   714     1
  536   713   715     1
  537   714   715     1
  538   717   718     1
  539   717   719     1
  540   718   719     1
  541   721   722     1
  542   721   723     1
  543   722   723     1
  544   725   726     1
  545   725   727     1
  546   726   727     1
  547   729   730     1
  548   729   731     1
  549   730   731     1
  550   733   734     1
  551   733   735     1
  552   734   735     1
  553   737   738     1
  554   737   739     1
  555   738   739     1
  556   741   742     1
  557   741   743     1
  558   742   743     1
  559   745   746     1
  560   745   747     1
  561   746   747     1
  562   749   750     1
  563   749   751     1
  564   750   751     1
  565   753   754     1
  566   753   755     1
  567   754   755     1
  568   757   758     1
  569   757   759     1
  570   758   759     1
  571   761   762     1
  572   761   763     1
  573   762   763     1
  574   765   766     1
  575   765   767     1
  576   766   767     1
  577   769   770     1
  578   769   771     1
  579   770   771     1
  580   773   774     1
  581   773   775     1
  582   774   775     1
  583   777   778     1
  584   777   779     1
  585   778   779     1
  586   781   782     1
  587   781   783     1
  588   782   783     1
  589   785   786     1
  590   785   787     1
  591   786   787     1
  592   789   790     1
  593   789   791     1
  594   790   791     1
  595   793   794     1
  596   793   795     1
  597   794   795     1
  598   797   798     1
  599   797   799     1
  600   798   799     1
  601   801   802     1
  602   801   803     1
  603   802   803     1
  604   805   806     1
  605   805   807     1
  606   806   807     1
  607   809   810     1
  608   809   811     1
  609   810   811     1
  610   813   814     1
  611   813   815     1
  612   814   815     1
  613   817   818     1
  614   817   819     1
  615   818   819     1
  616   821   822     1
  617   821   823     1
  618   822   823     1
  619   825   826     1
  620   825   827     1
  621   826   827     1
  622   829   830     1
  623   829   831     1
  624   830   831     1
  625   833   834     1
  626   833   835     1
  627   834   835     1
  628   837   838     1
  629   837   839     1
  630   838   839     1
  631   841   842     1
  632   841   843     1
  633   842   843     1
  634   845   846     1
  635   845   847     1
  636   846   847     1
  637   849   850     1
  638   849   851     1
  639   850   851     1
  640   853   854     1
  641   853   855     1
  642   854   855     1
  643   857   858     1
  644   857   859     1
  645   858   859     1
  646   861   862     1
  647   861   863     1
  648   862   863     1
  649   865   866     1
  650   865   867     1
  651   866   867     1
  652   869   870     1
  653   869   871     1
  654   870   871     1
  655   873   874     1
  656   873   875     1
  657   874   875     1
  658   877   878     1
  659   877   879     1
  660   878   879     1
  661   881   882     1
  662   881   883     1
  663   882   883     1
  664   885   886     1
  665   885   887     1
  666   886   887     1
  667   889   890     1
  668   889   891     1
  669   890   891     1
  670   893   894     1
  671   893   895     1
  672   894   895     1
  673   897   898     1
  674   897   899     1
  675   898   899     1
  676   901   902     1
  677   901   903     1
  678   902   903     1
  679   905   906     1
  680   905   907     1
  681   906   907     1
  682   909   910     1
  683   909   911     1
  684   910   911     1
  685   913   914     1
  686   913   915     1
  687   914   915     1
  688   917   918     1
  689   917   919     1
  690   918   919     1
  691   921   922     1
  692   921   923     1
  693   922   923     1
  694   925   926     1
  695   925   927     1
  696   926   927     1
  697   929   930     1
  698   929   931     1
  699   930   931     1
  700   933   934     1
  701   933   935     1
  702   934   935     1
  703   937   938     1
  704   937   939     1
  705   938   939     1
  706   941   942     1
  707   941   943     1
  708   942   943     1
  709   945   946     1
  710   945   947     1
  711   946   947     1
  712   949   950     1
  713   949   951     1
  714   950   951     1
  715   953   954     1
  716   953   955     1
  717   954   955     1
  718   957   958     1
  719   957   959     1
  720   958   959     1
  721   961   962     1
  722   961   963     1
  723   962   963     1
  724   965   966     1
  725   965   967     1
  726   966   967     1
  727   969   970     1
  728   969   971     1
  729   970   971     1
  730   973   974     1
  731   973   975     1
  732   974   975     1
  733   977   978     1
  734   977   979     1
  735   978   979     1
  736   981   982     1
  737   981   983     1
  738   982   983     1
  739   985   986     1
  740   985   987     1
  741   986   987     1
  742   989   990     1
  743   989   991     1
  744   990   991     1
  745   993   994     1
  746   993   995     1
  747   994   995     1
  748   997   998     1
  749   997   999     1
  750   998   999     1
  751  1001  1002     1
  752  1001  1003     1
  753  1002  1003     1
  754  1005  1006     1
  755  1005  1007     1
  756  1006  1007     1
  757  1009  1010     1
  758  1009  1011     1
  759  1010  1011     1
  760  1013  1014     1
  761  1013  1015     1
  762  1014  1015     1
  763  1017  1018     1
  764  1017  1019     1
  765  1018  1019     1
  766  1021  1022     1
  767  1021  1023     1
  768  1022  1023     1
  769  1025  1026     1
  770  1025  1027     1
  771  1026  1027     1
  772  1029  1030     1
  773  1029  1031     1
  774  1030  1031     1
  775  1033  1034     1
  776  1033  1035     1
  777  1034  1035     1
  778  1037  1038     1
  779  1037  1039     1
  780  1038  1039     1
  781  1041  1042     1
  782  1041  1043     1
  783  1042  1043     1
  784  1045  1046     1
  785  1045  1047     1
  786  1046  1047     1
  787  1049  1050     1
  788  1049  1051     1
  789  1050  1051     1
  790  1053  1054     1
  791  1053  1055     1
  792  1054  1055     1
  793  1057  1058     1
  794  1057  1059     1
  795  1058  1059     1
  796  1061  1062     1
  797  1061  1063     1
  798  1062  1063     1
  799  1065  1066     1
  800  1065  1067     1
  801  1066  1067     1
  802  1069  1070     1
  803  1069  1071     1
  804  1070  1071     1
  805  1073  1074     1
  806  1073  1075     1
  807  1074  1075     1
  808  1077  1078     1
  809  1077  1079     1
  810  1078  1079     1
  811  1081  1082     1
  812  1081  1083     1
  813  1082  1083     1
  814  1085  1086     1
  815  1085  1087     1
  816  1086  1087     1
  817  1089  1090     1
  818  1089  1091     1
  819  1090  1091     1
  820  1093  1094     1
  821  1093  1095     1
  822  1094  1095     1
  823  1097  1098     1
  824  1097  1099     1
  825  1098  1099     1
  826  1101  1102     1
  827  1101  1103     1
  828  1102  1103     1
  829  1105  1106     1
  830  1105  1107     1
  831  1106  1107     1
  832  1109  1110     1
  833  1109  1111     1
  834  1110  1111     1
  835  1113  1114     1
  836  1113  1115     1
  837  1114  1115     1
  838  1117  1118     1
  839  1117  1119     1
  840  1118  1119     1
  841  1121  1122     1
  842  1121  1123     1
  843  1122  1123     1
  844  1125  1126     1
  845  1125  1127     1
  846  1126  1127     1
  847  1129  1130     1
  848  1129  1131     1
  849  1130  1131     1
  850  1133  1134     1
  851  1133  1135     1
  852  1134  1135     1
  853  1137  1138     1
  854  1137  1139     1
  855  1138  1139     1
  856  1141  1142     1
  857  1141  1143     1
  858  1142  1143     1
  859  1145  1146     1
  860  1145  1147     1
  861  1146  1147     1
  862  1149  1150     1
  863  1149  1151     1
  864  1150  1151     1
  865  1153  1154     1
  866  1153  1155     1
  867  1154  1155     1
  868  1157  1158     1
  869  1157  1159     1
  870  1158  1159     1
  871  1161  1162     1
  872  1161  1163     1
  873  1162  1163     1
  874  1165  1166     1
  875  1165  1167     1
  876  1166  1167     1
  877  1169  1170     1
  878  1169  1171     1
  879  1170  1171     1
  880  1173  1174     1
  881  1173  1175     1
  882  1174  1175     1
  883  1177  1178     1
  884  1177  1179     1
  885  1178  1179     1
  886  1181  1182     1
  887  1181  1183     1
  888  1182  1183     1
  889  1185  1186     1
  890  1185  1187     1
  891  1186  1187     1
  892  1189  1190     1
  893  1189  1191     1
  894  1190  1191     1
  895  1193  1194     1
  896  1193  1195     1
  897  1194  1195     1
  898  1197  1198     1
  899  1197  1199     1
  900  1198  1199     1
  901  1201  1202     1
  902  1201  1203     1
  903  1202  1203     1
  904  1205  1206     1
  905  1205  1207     1
  906  1206  1207     1
  907  1209  1210     1
  908  1209  1211     1
  909  1210  1211     1
  910  1213  1214     1
  911  1213  1215     1
  912  1214  1215     1
  913  1217  1218     1
  914  1217  1219     1
  915  1218  1219     1
  916  1221  1222     1
  917  1221  1223     1
  918  1222  1223     1
  919  1225  1226     1
  920  1225  1227     1
  921  1226  1227     1
  922  1229  1230     1
  923  1229  1231     1
  924  1230  1231     1
  925  1233  1234     1
  926  1233  1235     1
  927  1234  1235     1
  928  1237  1238     1
  929  1237  1239     1
  930  1238  1239     1
  931  1241  1242     1
  932  1241  1243     1
  933  1242  1243     1
  934  1245  1246     1
  935  1245  1247     1
  936  1246  1247     1
  937  1249  1250     1
  938  1249  1251     1
  939  1250  1251     1
  940  1253  1254     1
  941  1253  1255     1
  942  1254  1255     1
  943  1257  1258     1
  944  1257  1259     1
  945  1258  1259     1
  946  1261  1262     1
  947  1261  1263     1
  948  1262  1263     1
  949  1265  1266     1
  950  1265  1267     1
  951  1266  1267     1
  952  1269  1270     1
  953  1269  1271     1
  954  1270  1271     1
  955  1273  1274     1
  956  1273  1275     1
  957  1274  1275     1
  958  1277  1278     1
  959  1277  1279     1
  960  1278  1279     1
  961  1281  1282     1
  962  1281  1283     1
  963  1282  1283     1
  964  1285  1286     1
  965  1285  1287     1
  966  1286  1287     1
  967  1289  1290     1
  968  1289  1291     1
  969  1290  1291     1
  970  1293  1294     1
  971  1293  1295     1
  972  1294  1295     1
  973  1297  1298     1
  974  1297  1299     1
  975  1298  1299     1
  976  1301  1302     1
  977  1301  1303     1
  978  1302  1303     1
  979  1305  1306     1
  980  1305  1307     1
  981  1306  1307     1
  982  1309  1310     1
  983  1309  1311     1
  984  1310  1311     1
  985  1313  1314     1
  986  1313  1315     1
  987  1314  1315     1
  988  1317  1318     1
  989  1317  1319     1
  990  1318  1319     1
  991  1321  1322     1
  992  1321  1323     1
  993  1322  1323     1
  994  1325  1326     1
  995  1325  1327     1
  996  1326  1327     1
  997  1329  1330     1
  998  1329  1331     1
  999  1330  1331     1
 1000  1333  1334     1
 1001  1333  1335     1
 1002  1334  1335     1
 1003  1337  1338     1
 1004  1337  1339     1
 1005  1338  1339     1
 1006  1341  1342     1
 1007  1341  1343     1
 1008  1342  1343     1
 1009  1345  1346     1
 1010  1345  1347     1
 1011  1346  1347     1
 1012  1349  1350     1
 1013  1349  1351     1
 1014  1350  1351     1
 1015  1353  1354     1
 1016  1353  1355     1
 1017  1354  1355     1
 1018  1357  1358     1
 1019  1357  1359     1
 1020  1358  1359     1
 1021  1361  1362     1
 1022  1361  1363     1
 1023  1362  1363     1
 1024  1365  1366     1
 1025  1365  1367     1
 1026  1366  1367     1
 1027  1369  1370     1
 1028  1369  1371     1
 1029  1370  1371     1
 1030  1373  1374     1
 1031  1373  1375     1
 1032  1374  1375     1
 1033  1377  1378     1
 1034  1377  1379     1
 1035  1378  1379     1
 1036  1381  1382     1
 1037  1381  1383     1
 1038  1382  1383     1
 1039  1385  1386     1
 1040  1385  1387     1
 1041  1386  1387     1
 1042  1389  1390     1
 1043  1389  1391     1
 1044  1390  1391     1
 1045  1393  1394     1
 1046  1393  1395     1
 1047  1394  1395     1
 1048  1397  1398     1
 1049  1397  1399     1
 1050  1398  1399     1
 1051  1401  1402     1
 1052  1401  1403     1
 1053  1402  1403     1
 1054  1405  1406     1
 1055  1405  1407     1
 1056  1406  1407     1
 1057  1409  1410     1
 1058  1409  1411     1
 1059  1410  1411     1
 1060  1413  1414     1
 1061  1413  1415     1
 1062  1414  1415     1
 1063  1417  1418     1
 1064  1417  1419     1
 1065  1418  1419     1
 1066  1421  1422     1
 1067  1421  1423     1
 1068  1422  1423     1
 1069  1425  1426     1
 1070  1425  1427     1
 1071  1426  1427     1
 1072  1429  1430     1
 1073  1429  1431     1
 1074  1430  1431     1
 1075  1433  1434     1
 1076  1433  1435     1
 1077  1434  1435     1
 1078  1437  1438     1
 1079  1437  1439     1
 1080  1438  1439     1
 1081  1441  1442     1
 1082  1441  1443     1
 1083  1442  1443     1
 1084  1445  1446     1
 1085  1445  1447     1
 1086  1446  1447     1
 1087  1449  1450     1
 1088  1449  1451     1
 1089  1450  1451     1
 1090  1453  1454     1
 1091  1453  1455     1
 1092  1454  1455     1
 1093  1457  1458     1
 1094  1457  1459     1
 1095  1458  1459     1
 1096  1461  1462     1
 1097  1461  1463     1
 1098  1462  1463     1
 1099  1465  1466     1
 1100  1465  1467     1
 1101  1466  1467     1
 1102  1469  1470     1
 1103  1469  1471     1
 1104  1470  1471     1
 1105  1665  1666     1
 1106  1665  1667     1
 1107  1666  1667     1
 1108  1669  1670     1
 1109  1669  1671     1
 1110  1670  1671     1
 1111  1673  1674     1
 1112  1673  1675     1
 1113  1674  1675     1
 1114  1677  1678     1
 1115  1677  1679     1
 1116  1678  1679     1
 1117  1681  1682     1
 1118  1681  1683     1
 1119  1682  1683     1
 1120  1685  1686     1
 1121  1685  1687     1
 1122  1686  1687     1
 1123  1689  1690     1
 1124  1689  1691     1
 1125  1690  1691     1
 1126  1693  1694     1
 1127  1693  1695     1
 1128  1694  1695     1
 1129  1697  1698     1
 1130  1697  1699     1
 1131  1698  1699     1
 1132  1701  1702     1
 1133  1701  1703     1
 1134  1702  1703     1
 1135  1705  1706     1
 1136  1705  1707     1
 1137  1706  1707     1
 1138  1709  1710     1
 1139  1709  1711     1
 1140  1710  1711     1
 1141  1713  1714     1
 1142  1713  1715     1
 1143  1714  1715     1
 1144  1717  1718     1
 1145  1717  1719     1
 1146  1718  1719     1
 1147  1721  1722     1
 1148  1721  1723     1
 1149  1722  1723     1
 1150  1725  1726     1
 1151  1725  1727     1
 1152  1726  1727     1
 1153  1729  1730     1
 1154  1729  1731     1
 1155  1730  1731     1
 1156  1733  1734     1
 1157  1733  1735     1
 1158  1734  1735     1
 1159  1737  1738     1
 1160  1737  1739     1
 1161  1738  1739     1
 1162  1741  1742     1
 1163  1741  1743     1
 1164  1742  1743     1
 1165  1745  1746     1
 1166  1745  1747     1
 1167  1746  1747     1
 1168  1749  1750     1
 1169  1749  1751     1
 1170  1750  1751     1
 1171  1753  1754     1
 1172  1753  1755     1
 1173  1754  1755     1
 1174  1757  1758     1
 1175  1757  1759     1
 1176  1758  1759     1
 1177  1761  1762     1
 1178  1761  1763     1
 1179  1762  1763     1
 1180  1765  1766     1
 1181  1765  1767     1
 1182  1766  1767     1
 1183  1769  1770     1
 1184  1769  1771     1
 1185  1770  1771     1
 1186  1773  1774     1
 1187  1773  1775     1
 1188  1774  1775     1
 1189  1777  1778     1
 1190  1777  1779     1
 1191  1778  1779     1
 1192  1781  1782     1
 1193  1781  1783     1
 1194  1782  1783     1
 1195  1785  1786     1
 1196  1785  1787     1
 1197  1786  1787     1
 1198  1789  1790     1
 1199  1789  1791     1
 1200  1790  1791     1
 1201  1793  1794     1
 1202  1793  1795     1
 1203  1794  1795     1
 1204  1797  1798     1
 1205  1797  1799     1
 1206  1798  1799     1
 1207  1801  1802     1
 1208  1801  1803     1
 1209  1802  1803     1
 1210  1805  1806     1
 1211  1805  1807     1
 1212  1806  1807     1
 1213  1809  1810     1
 1214  1809  1811     1
 1215  1810  1811     1
 1216  1813  1814     1
 1217  1813  1815     1
 1218  1814  1815     1
 1219  1817  1818     1
 1220  1817  1819     1
 1221  1818  1819     1
 1222  1821  1822     1
 1223  1821  1823     1
 1224  1822  1823     1
 1225  1825  1826     1
 1226  1825  1827     1
 1227  1826  1827     1
 1228  1829  1830     1
 1229  1829  1831     1
 1230  1830  1831     1
 1231  1833  1834     1
 1232  1833  1835     1
 1233  1834  1835     1
 1234  1837  1838     1
 1235  1837  1839     1
 1236  1838  1839     1
 1237  1841  1842     1
 1238  1841  1843     1
 1239  1842  1843     1
 1240  1845  1846     1
 1241  1845  1847     1
 1242  1846  1847     1
 1243  1849  1850     1
 1244  1849  1851     1
 1245  1850  1851     1
 1246  1853  1854     1
 1247  1853  1855     1
 1248  1854  1855     1
 1249  1857  1858     1
 1250  1857  1859     1
 1251  1858  1859     1
 1252  1861  1862     1
 1253  1861  1863     1
 1254  1862  1863     1
 1255  1865  1866     1
 1256  1865  1867     1
 1257  1866  1867     1
 1258  1869  1870     1
 1259  1869  1871     1
 1260  1870  1871     1
 1261  1873  1874     1
 1262  1873  1875     1
 1263  1874  1875     1
 1264  1877  1878     1
 1265  1877  1879     1
 1266  1878  1879     1
 1267  1881  1882     1
 1268  1881  1883     1
 1269  1882  1883     1
 1270  1885  1886     1
 1271  1885  1887     1
 1272  1886  1887     1
 1273  1889  1890     1
 1274  1889  1891     1
 1275  1890  1891     1
 1276  1893  1894     1
 1277  1893  1895     1
 1278  1894  1895     1
 1279  1897  1898     1
 1280  1897  1899     1
 1281  1898  1899     1
 1282  1901  1902     1
 1283  1901  1903     1
 1284  1902  1903     1
 1285  1905  1906     1
 1286  1905  1907     1
 1287  1906  1907     1
 1288  1909  1910     1
 1289  1909  1911     1
 1290  1910  1911     1
 1291  1913  1914     1
 1292  1913  1915     1
 1293  1914  1915     1
 1294  1917  1918     1
 1295  1917  1919     1
 1296  1918  1919     1
 1297  1921  1922     1
 1298  1921  1923     1
 1299  1922  1923     1
 1300  1925  1926     1
 1301  1925  1927     1
 1302  1926  1927     1
 1303  1929  1930     1
 1304  1929  1931     1
 1305  1930  1931     1
 1306  1933  1934     1
 1307  1933  1935     1
 1308  1934  1935     1
 1309  1937  1938     1
 1310  1937  1939     1
 1311  1938  1939     1
 1312  1941  1942     1
 1313  1941  1943     1
 1314  1942  1943     1
 1315  1945  1946     1
 1316  1945  1947     1
 1317  1946  1947     1
 1318  1949  1950     1
 1319  1949  1951     1
 1320  1950  1951     1
 1321  1953  1954     1
 1322  1953  1955     1
 1323  1954  1955     1
 1324  1957  1958     1
 1325  1957  1959     1
 1326  1958  1959     1
 1327  1961  1962     1
 1328  1961  1963     1
 1329  1962  1963     1
 1330  1965  1966     1
 1331  1965  1967     1
 1332  1966  1967     1
 1333  1969  1970     1
 1334  1969  1971     1
 1335  1970  1971     1
 1336  1973  1974     1
 1337  1973  1975     1
 1338  1974  1975     1
 1339  1977  1978     1
 1340  1977  1979     1
 1341  1978  1979     1
 1342  1981  1982     1
 1343  1981  1983     1
 1344  1982  1983     1
 1345  1985  1986     1
 1346  1985  1987     1
 1347  1986  1987     1
 1348  1989  1990     1
 1349  1989  1991     1
 1350  1990  1991     1
 1351  1993  1994     1
 1352  1993  1995     1
 1353  1994  1995     1
 1354  1997  1998     1
 1355  1997  1999     1
 1356  1998  1999     1
 1357  2001  2002     1
 1358  2001  2003     1
 1359  2002  2003     1
 1360  2005  2006     1
 1361  2005  2007     1
 1362  2006  2007     1
 1363  2009  2010     1
 1364  2009  2011     1
 1365  2010  2011     1
 1366  2013  2014     1
 1367  2013  2015     1
 1368  2014  2015     1
 1369  2017  2018     1
 1370  2017  2019     1
 1371  2018  2019     1
 1372  2021  2022     1
 1373  2021  2023     1
 1374  2022  2023     1
 1375  2025  2026     1
 1376  2025  2027     1
 1377  2026  2027     1
 1378  2029  2030     1
 1379  2029  2031     1
 1380  2030  2031     1
 1381  2033  2034     1
 1382  2033  2035     1
 1383  2034  2035     1
 1384  2037  2038     1
 1385  2037  2039     1
 1386  2038  2039     1
 1387  2041  2042     1
 1388  2041  2043     1
 1389  2042  2043     1
 1390  2045  2046     1
 1391  2045  2047     1
 1392  2046  2047     1
 1393  2049  2050     1
 1394  2049  2051     1
 1395  2050  2051     1
 1396  2053  2054     1
 1397  2053  2055     1
 1398  2054  2055     1
 1399  2057  2058     1
 1400  2057  2059     1
 1401  2058  2059     1
 1402  2061  2062     1
 1403  2061  2063     1
 1404  2062  2063     1
 1405  2065  2066     1
 1406  2065  2067     1
 1407  2066  2067     1
 1408  2069  2070     1
 1409  2069  2071     1
 1410  2070  2071     1
 1411  2073  2074     1
 1412  2073  2075     1
 1413  2074  2075     1
 1414  2077  2078     1
 1415  2077  2079     1
 1416  2078  2079     1
 1417  2081  2082     1
 1418  2081  2083     1
 1419  2082  2083     1
 1420  2085  2086     1
 1421  2085  2087     1
 1422  2086  2087     1
 1423  2089  2090     1
 1424  2089  2091     1
 1425  2090  2091     1
 1426  2093  2094     1
 1427  2093  2095     1
 1428  2094  2095     1
 1429  2097  2098     1
 1430  2097  2099     1
 1431  2098  2099     1
 1432  2101  2102     1
 1433  2101  2103     1
 1434  2102  2103     1
 1435  2105  2106     1
 1436  2105  2107     1
 1437  2106  2107     1
 1438  2109  2110     1
 1439  2109  2111     1
 1440  2110  2111     1
 1441  2113  2114     1
 1442  2113  2115     1
 1443  2114  2115     1
 1444  2117  2118     1
 1445  2117  2119     1
 1446  2118  2119     1
 1447  2121  2122     1
 1448  2121  2123     1
 1449  2122  2123     1
 1450  2125  2126     1
 1451  2125  2127     1
 1452  2126  2127     1
 1453  2129  2130     1
 1454  2129  2131     1
 1455  2130  2131     1
 1456  2133  2134     1
 1457  2133  2135     1
 1458  2134  2135     1
 1459  2137  2138     1
 1460  2137  2139     1
 1461  2138  2139     1
 1462  2141  2142     1
 1463  2141  2143     1
 1464  2142  2143     1
 1465  2145  2146     1
 1466  2145  2147     1
 1467  2146  2147     1
 1468  2149  2150     1
 1469  2149  2151     1
 1470  2150  2151     1
 1471  2153  2154     1
 1472  2153  2155     1
 1473  2154  2155     1
 1474  2157  2158     1
 1475  2157  2159     1
 1476  2158  2159     1
 1477  2161  2162     1
 1478  2161  2163     1
 1479  2162  2163     1
 1480  2165  2166     1
 1481  2165  2167     1
 1482  2166  2167     1
 1483  2169  2170     1
 1484  2169  2171     1
 1485  2170  2171     1
 1486  2173  2174     1
 1487  2173  2175     1
 1488  2174  2175     1
 1489  2177  2178     1
 1490  2177  2179     1
 1491  2178  2179     1
 1492  2181  2182     1
 1493  2181  2183     1
 1494  2182  2183     1
 1495  2185  2186     1
 1496  2185  2187     1
 1497  2186  2187     1
 1498  2189  2190     1
 1499  2189  2191     1
 1500  2190  2191     1
 1501  2193  2194     1
 1502  2193  2195     1
 1503  2194  2195     1
 1504  2197  2198     1
 1505  2197  2199     1
 1506  2198  2199     1
 1507  2201  2202     1
 1508  2201  2203     1
 1509  2202  2203     1
 1510  2205  2206     1
 1511  2205  2207     1
 1512  2206  2207     1
 1513  2209  2210     1
 1514  2209  2211     1
 1515  2210  2211     1
 1516  2213  2214     1
 1517  2213  2215     1
 1518  2214  2215     1
 1519  2217  2218     1
 1520  2217  2219     1
 1521  2218  2219     1
 1522  2221  2222     1
 1523  2221  2223     1
 1524  2222  2223     1
 1525  2225  2226     1
 1526  2225  2227     1
 1527  2226  2227     1
 1528  2229  2230     1
 1529  2229  2231     1
 1530  2230  2231     1
 1531  2233  2234     1
 1532  2233  2235     1
 1533  2234  2235     1
 1534  2237  2238     1
 1535  2237  2239     1
 1536  2238  2239     1
 1537  2241  2242     1
 1538  2241  2243     1
 1539  2242  2243     1
 1540  2245  2246     1
 1541  2245  2247     1
 1542  2246  2247     1
 1543  2249  2250     1
 1544  2249  2251     1
 1545  2250  2251     1
 1546  2253  2254     1
 1547  2253  2255     1
 1548  2254  2255     1
 1549  2257  2258     1
 1550  2257  2259     1
 1551  2258  2259     1
 1552  2261  2262     1
 1553  2261  2263     1
 1554  2262  2263     1
 1555  2265  2266     1
 1556  2265  2267     1
 1557  2266  2267     1
 1558  2269  2270     1
 1559  2269  2271     1
 1560  2270  2271     1
 1561  2273  2274     1
 1562  2273  2275     1
 1563  2274  2275     1
 1564  2277  2278     1
 1565  2277  2279     1
 1566  2278  2279     1
 1567  2281  2282     1
 1568  2281  2283     1
 1569  2282  2283     1
 1570  2285  2286     1
 1571  2285  2287     1
 1572  2286  2287     1
 1573  2289  2290     1
 1574  2289  2291     1
 1575  2290  2291     1
 1576  2293  2294     1
 1577  2293  2295     1
 1578  2294  2295     1
 1579  2297  2298     1
 1580  2297  2299     1
 1581  2298  2299     1
 1582  2301  2302     1
 1583  2301  2303     1
 1584  2302  2303     1
 1585  2305  2306     1
 1586  2305  2307     1
 1587  2306  2307     1
 1588  2309  2310     1
 1589  2309  2311     1
 1590  2310  2311     1
 1591  2313  2314     1
 1592  2313  2315     1
 1593  2314  2315     1
 1594  2317  2318     1
 1595  2317  2319     1
 1596  2318  2319     1
 1597  2321  2322     1
 1598  2321  2323     1
 1599  2322  2323     1
 1600  2325  2326     1
 1601  2325  2327     1
 1602  2326  2327     1
 1603  2329  2330     1
 1604  2329  2331     1
 1605  2330  2331     1
 1606  2333  2334     1
 1607  2333  2335     1
 1608  2334  2335     1
 1609  2337  2338     1
 1610  2337  2339     1
 1611  2338  2339     1
 1612  2341  2342     1
 1613  2341  2343     1
 1614  2342  2343     1
 1615  2345  2346     1
 1616  2345  2347     1
 1617  2346  2347     1
 1618  2349  2350     1
 1619  2349  2351     1
 1620  2350  2351     1
 1621  2353  2354     1
 1622  2353  2355     1
 1623  2354  2355     1
 1624  2357  2358     1
 1625  2357  2359     1
 1626  2358  2359     1
 1627  2361  2362     1
 1628  2361  2363     1
 1629  2362  2363     1
 1630  2365  2366     1
 1631  2365  2367     1
 1632  2366  2367     1
 1633  2369  2370     1
 1634  2369  2371     1
 1635  2370  2371     1
 1636  2373  2374     1
 1637  2373  2375     1
 1638  2374  2375     1
 1639  2377  2378     1
 1640  2377  2379     1
 1641  2378  2379     1
 1642  2381  2382     1
 1643  2381  2383     1
 1644  2382  2383     1
 1645  2385  2386     1
 1646  2385  2387     1
 1647  2386  2387     1
 1648  2389  2390     1
 1649  2389  2391     1
 1650  2390  2391     1
 1651  2393  2394     1
 1652  2393  2395     1
 1653  2394  2395     1
 1654  2397  2398     1
 1655  2397  2399     1
 1656  2398  2399     1
 1657  2401  2402     1
 1658  2401  2403     1
 1659  2402  2403     1
 1660  2405  2406     1
 1661  2405  2407     1
 1662  2406  2407     1
 1663  2409  2410     1
 1664  2409  2411     1
 1665  2410  2411     1
 1666  2413  2414     1
 1667  2413  2415     1
 1668  2414  2415     1
 1669  2417  2418     1
 1670  2417  2419     1
 1671  2418  2419     1
 1672  2421  2422     1
 1673  2421  2423     1
 1674  2422  2423     1
 1675  2425  2426     1
 1676  2425  2427     1
 1677  2426  2427     1
 1678  2429  2430     1
 1679  2429  2431     1
 1680  2430  2431     1
 1681  2433  2434     1
 1682  2433  2435     1
 1683  2434  2435     1
 1684  2437  2438     1
 1685  2437  2439     1
 1686  2438  2439     1
 1687  2441  2442     1
 1688  2441  2443     1
 1689  2442  2443     1
 1690  2445  2446     1
 1691  2445  2447     1
 1692  2446  2447     1
 1693  2449  2450     1
 1694  2449  2451     1
 1695  2450  2451     1
 1696  2453  2454     1
 1697  2453  2455     1
 1698  2454  2455     1
 1699  2457  2458     1
 1700  2457  2459     1
 1701  2458  2459     1
 1702  2461  2462     1
 1703  2461  2463     1
 1704  2462  2463     1
 1705  2465  2466     1
 1706  2465  2467     1
 1707  2466  2467     1
 1708  2469  2470     1
 1709  2469  2471     1
 1710  2470  2471     1
 1711  2473  2474     1
 1712  2473  2475     1
 1713  2474  2475     1
 1714  2477  2478     1
 1715  2477  2479     1
 1716  2478  2479     1
 1717  2481  2482     1
 1718  2481  2483     1
 1719  2482  2483     1
 1720  2485  2486     1
 1721  2485  2487     1
 1722  2486  2487     1
 1723  2489  2490     1
 1724  2489  2491     1
 1725  2490  2491     1
 1726  2493  2494     1
 1727  2493  2495     1
 1728  2494  2495     1
 1729  2497  2498     1
 1730  2497  2499     1
 1731  2498  2499     1
 1732  2501  2502     1
 1733  2501  2503     1
 1734  2502  2503     1
 1735  2505  2506     1
 1736  2505  2507     1
 1737  2506  2507     1
 1738  2509  2510     1
 1739  2509  2511     1
 1740  2510  2511     1
 1741  2513  2514     1
 1742  2513  2515     1
 1743  2514  2515     1
 1744  2517  2518     1
 1745  2517  2519     1
 1746  2518  2519     1
 1747  2521  2522     1
 1748  2521  2523     1
 1749  2522  2523     1
 1750  2525  2526     1
 1751  2525  2527     1
 1752  2526  2527     1
 1753  2529  2530     1
 1754  2529  2531     1
 1755  2530  2531     1
 1756  2533  2534     1
 1757  2533  2535     1
 1758  2534  2535     1
 1759  2537  2538     1
 1760  2537  2539     1
 1761  2538  2539     1
 1762  2541  2542     1
 1763  2541  2543     1
 1764  2542  2543     1
 1765  2545  2546     1
 1766  2545  2547     1
 1767  2546  2547     1
 1768  2549  2550     1
 1769  2549  2551     1
 1770  2550  2551     1
 1771  2553  2554     1
 1772  2553  2555     1
 1773  2554  2555     1
 1774  2557  2558     1
 1775  2557  2559     1
 1776  2558  2559     1
 1777  2561  2562     1
 1778  2561  2563     1
 1779  2562  2563     1
 1780  2565  2566     1
 1781  2565  2567     1
 1782  2566  2567     1
 1783  2569  2570     1
 1784  2569  2571     1
 1785  2570  2571     1
 1786  2573  2574     1
 1787  2573  2575     1
 1788  2574  2575     1
 1789  2577  2578     1
 1790  2577  2579     1
 1791  2578  2579     1
 1792  2581  2582     1
 1793  2581  2583     1
 1794  2582  2583     1
 1795  2585  2586     1
 1796  2585  2587     1
 1797  2586  2587     1
 1798  2589  2590     1
 1799  2589  2591     1
 1800  2590  2591     1
 1801  2593  2594     1
 1802  2593  2595     1
 1803  2594  2595     1
 1804  2597  2598     1
 1805  2597  2599     1
 1806  2598  2599     1
 1807  2601  2602     1
 1808  2601  2603     1
 1809  2602  2603     1
 1810  2605  2606     1
 1811  2605  2607     1
 1812  2606  2607     1
 1813  2609  2610     1
 1814  2609  2611     1
 1815  2610  2611     1
 1816  2613  2614     1
 1817  2613  2615     1
 1818  2614  2615     1
 1819  2617  2618     1
 1820  2617  2619     1
 1821  2618  2619     1
 1822  2621  2622     1
 1823  2621  2623     1
 1824  2622  2623     1
 1825  2625  2626     1
 1826  2625  2627     1
 1827  2626  2627     1
 1828  2629  2630     1
 1829  2629  2631     1
 1830  2630  2631     1
 1831  2633  2634     1
 1832  2633  2635     1
 1833  2634  2635     1
 1834  2637  2638     1
 1835  2637  2639     1
 1836  2638  2639     1
 1837  2641  2642     1
 1838  2641  2643     1
 1839  2642  2643     1
 1840  2645  2646     1
 1841  2645  2647     1
 1842  2646  2647     1
 1843  2649  2650     1
 1844  2649  2651     1
 1845  2650  2651     1
 1846  2653  2654     1
 1847  2653  2655     1
 1848  2654  2655     1
 1849  2657  2658     1
 1850  2657  2659     1
 1851  2658  2659     1
 1852  2661  2662     1
 1853  2661  2663     1
 1854  2662  2663     1
 1855  2665  2666     1
 1856  2665  2667     1
 1857  2666  2667     1
 1858  2669  2670     1
 1859  2669  2671     1
 1860  2670  2671     1
 1861  2673  2674     1
 1862  2673  2675     1
 1863  2674  2675     1
 1864  2677  2678     1
 1865  2677  2679     1
 1866  2678  2679     1
 1867  2681  2682     1
 1868  2681  2683     1
 1869  2682  2683     1
 1870  2685  2686     1
 1871  2685  2687     1
 1872  2686  2687     1
 1873  2689  2690     1
 1874  2689  2691     1
 1875  2690  2691     1
 1876  2693  2694     1
 1877  2693  2695     1
 1878  2694  2695     1
 1879  2697  2698     1
 1880  2697  2699     1
 1881  2698  2699     1
 1882  2701  2702     1
 1883  2701  2703     1
 1884  2702  2703     1
 1885  2705  2706     1
 1886  2705  2707     1
 1887  2706  2707     1
 1888  2709  2710     1
 1889  2709  2711     1
 1890  2710  2711     1
 1891  2713  2714     1
 1892  2713  2715     1
 1893  2714  2715     1
 1894  2717  2718     1
 1895  2717  2719     1
 1896  2718  2719     1
 1897  2721  2722     1
 1898  2721  2723     1
 1899  2722  2723     1
 1900  2725  2726     1
 1901  2725  2727     1
 1902  2726  2727     1
 1903  2729  2730     1
 1904  2729  2731     1
 1905  2730  2731     1
 1906  2733  2734     1
 1907  2733  2735     1
 1908  2734  2735     1
 1909  2737  2738     1
 1910  2737  2739     1
 1911  2738  2739     1
 1912  2741  2742     1
 1913  2741  2743     1
 1914  2742  2743     1
 1915  2745  2746     1
 1916  2745  2747     1
 1917  2746  2747     1
 1918  2749  2750     1
 1919  2749  2751     1
 1920  2750  2751     1
 1921  2753  2754     1
 1922  2753  2755     1
 1923  2754  2755     1
 1924  2757  2758     1
 1925  2757  2759     1
 1926  2758  2759     1
 1927  2761  2762     1
 1928  2761  2763     1
 1929  2762  2763     1
 1930  2765  2766     1
 1931  2765  2767     1
 1932  2766  2767     1
 1933  2769  2770     1
 1934  2769  2771     1
 1935  2770  2771     1
 1936  2773  2774     1
 1937  2773  2775     1
 1938  2774  2775     1
 1939  2777  2778     1
 1940  2777  2779     1
 1941  2778  2779     1
 1942  2781  2782     1
 1943  2781  2783     1
 1944  2782  2783     1
 1945  2785  2786     1
 1946  2785  2787     1
 1947  2786  2787     1
 1948  2789  2790     1
 1949  2789  2791     1
 1950  2790  2791     1
 1951  2793  2794     1
 1952  2793  2795     1
 1953  2794  2795     1
 1954  2797  2798     1
 1955  2797  2799     1
 1956  2798  2799     1
 1957  2801  2802     1
 1958  2801  2803     1
 1959  2802  2803     1
 1960  2805  2806     1
 1961  2805  2807     1
 1962  2806  2807     1
 1963  2809  2810     1
 1964  2809  2811     1
 1965  2810  2811     1
 1966  2813  2814     1
 1967  2813  2815     1
 1968  2814  2815     1
 1969  2817  2818     1
 1970  2817  2819     1
 1971  2818  2819     1
 1972  2821  2822     1
 1973  2821  2823     1
 1974  2822  2823     1
 1975  2825  2826     1
 1976  2825  2827     1
 1977  2826  2827     1
 1978  2829  2830     1
 1979  2829  2831     1
 1980  2830  2831     1
 1981  2833  2834     1
 1982  2833  2835     1
 1983  2834  2835     1
 1984  2837  2838     1
 1985  2837  2839     1
 1986  2838  2839     1
 1987  2841  2842     1
 1988  2841  2843     1
 1989  2842  2843     1
 1990  2845  2846     1
 1991  2845  2847     1
 1992  2846  2847     1
 1993  2849  2850     1
 1994  2849  2851     1
 1995  2850  2851     1
 1996  2853  2854     1
 1997  2853  2855     1
 1998  2854  2855     1
 1999  2857  2858     1
 2000  2857  2859     1
 2001  2858  2859     1
 2002  2861  2862     1
 2003  2861  2863     1
 2004  2862  2863     1
 2005  2865  2866     1
 2006  2865  2867     1
 2007  2866  2867     1
 2008  2869  2870     1
 2009  2869  2871     1
 2010  2870  2871     1
 2011  2873  2874     1
 2012  2873  2875     1
 2013  2874  2875     1
 2014  2877  2878     1
 2015  2877  2879     1
 2016  2878  2879     1
 2017  2881  2882     1
 2018  2881  2883     1
 2019  2882  2883     1
 2020  2885  2886     1
 2021  2885  2887     1
 2022  2886  2887     1
 2023  2889  2890     1
 2024  2889  2891     1
 2025  2890  2891     1
 2026  2893  2894     1
 2027  2893  2895     1
 2028  2894  2895     1
 2029  2897  2898     1
 2030  2897  2899     1
 2031  2898  2899     1
 2032  2901  2902     1
 2033  2901  2903     1
 2034  2902  2903     1
 2035  2905  2906     1
 2036  2905  2907     1
 2037  2906  2907     1
 2038  2909  2910     1
 2039  2909  2911     1
 2040  2910  2911     1
 2041  2913  2914     1
 2042  2913  2915     1
 2043  2914  2915     1
 2044  2917  2918     1
 2045  2917  2919     1
 2046  2918  2919     1
 2047  2921  2922     1
 2048  2921  2923     1
 2049  2922  2923     1
 2050  2925  2926     1
 2051  2925  2927     1
 2052  2926  2927     1
 2053  2929  2930     1
 2054  2929  2931     1
 2055  2930  2931     1
 2056  2933  2934     1
 2057  2933  2935     1
 2058  2934  2935     1
 2059  2937  2938     1
 2060  2937  2939     1
 2061  2938  2939     1
 2062  2941  2942     1
 2063  2941  2943     1
 2064  2942  2943     1
 2065  2945  2946     1
 2066  2945  2947     1
 2067  2946  2947     1
 2068  2949  2950     1
 2069  2949  2951     1
 2070  2950  2951     1
 2071  2953  2954     1
 2072  2953  2955     1
 2073  2954  2955     1
 2074  2957  2958     1
 2075  2957  2959     1
 2076  2958  2959     1
 2077  2961  2962     1
 2078  2961  2963     1
 2079  2962  2963     1
 2080  2965  2966     1
 2081  2965  2967     1
 2082  2966  2967     1
 2083  2969  2970     1
 2084  2969  2971     1
 2085  2970  2971     1
 2086  2973  2974     1
 2087  2973  2975     1
 2088  2974  2975     1
 2089  2977  2978     1
 2090  2977  2979     1
 2091  2978  2979     1
 2092  2981  2982     1
 2093  2981  2983     1
 2094  2982  2983     1
 2095  2985  2986     1
 2096  2985  2987     1
 2097  2986  2987     1
 2098  2989  2990     1
 2099  2989  2991     1
 2100  2990  2991     1
 2101  2993  2994     1
 2102  2993  2995     1
 2103  2994  2995     1
 2104  2997  2998     1
 2105  2997  2999     1
 2106  2998  2999     1
 2107  3001  3002     1
 2108  3001  3003     1
 2109  3002  3003     1
 2110  3005  3006     1
 2111  3005  3007     1
 2112  3006  3007     1
 2113  3009  3010     1
 2114  3009  3011     1
 2115  3010  3011     1
 2116  3013  3014     1
 2117  3013  3015     1
 2118  3014  3015     1
 2119  3017  3018     1
 2120  3017  3019     1
 2121  3018  3019     1
 2122  3021  3022     1
 2123  3021  3023     1
 2124  3022  3023     1
 2125  3025  3026     1
 2126  3025  3027     1
 2127  3026  3027     1
 2128  3029  3030     1
 2129  3029  3031     1
 2130  3030  3031     1
 2131  3033  3034     1
 2132  3033  3035     1
 2133  3034  3035     1
 2134  3037  3038     1
 2135  3037  3039     1
 2136  3038  3039     1
 2137  3041  3042     1
 2138  3041  3043     1
 2139  3042  3043     1
 2140  3045  3046     1
 2141  3045  3047     1
 2142  3046  3047     1
 2143  3049  3050     1
 2144  3049  3051     1
 2145  3050  3051     1
 2146  3053  3054     1
 2147  3053  3055     1
 2148  3054  3055     1
 2149  3057  3058     1
 2150  3057  3059     1
 2151  3058  3059     1
 2152  3061  3062     1
 2153  3061  3063     1
 2154  3062  3063     1
 2155  3065  3066     1
 2156  3065  3067     1
 2157  3066  3067     1
 2158  3069  3070     1
 2159  3069  3071     1
 2160  3070  3071     1
 2161  3073  3074     1
 2162  3073  3075     1
 2163  3074  3075     1
 2164  3077  3078     1
 2165  3077  3079     1
 2166  3078  3079     1
 2167  3081  3082     1
 2168  3081  3083     1
 2169  3082  3083     1
 2170  3085  3086     1
 2171  3085  3087     1
 2172  3086  3087     1
 2173  3089  3090     1
 2174  3089  3091     1
 2175  3090  3091     1
 2176  3093  3094     1
 2177  3093  3095     1
 2178  3094  3095     1
 2179  3097  3098     1
 2180  3097  3099     1
 2181  3098  3099     1
 2182  3101  3102     1
 2183  3101  3103     1
 2184  3102  3103     1
 2185  3105  3106     1
 2186  3105  3107     1
 2187  3106  3107     1
 2188  3109  3110     1
 2189  3109  3111     1
 2190  3110  3111     1
 2191  3113  3114     1
 2192  3113  3115     1
 2193  3114  3115     1
 2194  3117  3118     1
 2195  3117  3119     1
 2196  3118  3119     1
 2197  3121  3122     1
 2198  3121  3123     1
 2199  3122  3123     1
 2200  3125  3126     1
 2201  3125  3127     1
 2202  3126  3127     1
 2203  3129  3130     1
 2204  3129  3131     1
 2205  3130  3131     1
 2206  3133  3134     1
 2207  3133  3135     1
 2208  3134  3135     1
 2209  3137  3138     1
 2210  3137  3139     1
 2211  3138  3139     1
 2212  3141  3142     1
 2213  3141  3143     1
 2214  3142  3143     1
 2215  3145  3146     1
 2216  3145  3147     1
 2217  3146  3147     1
 2218  3149  3150     1
 2219  3149  3151     1
 2220  3150  3151     1
 2221  3153  3154     1
 2222  3153  3155     1
 2223  3154  3155     1
 2224  3157  3158     1
 2225  3157  3159     1
 2226  3158  3159     1
 2227  3161  3162     1
 2228  3161  3163     1
 2229  3162  3163     1
 2230  3165  3166     1
 2231  3165  3167     1
 2232  3166  3167     1
 2233  3169  3170     1
 2234  3169  3171     1
 2235  3170  3171     1
 2236  3173  3174     1
 2237  3173  3175     1
 2238  3174  3175     1
 2239  3177  3178     1
 2240  3177  3179     1
 2241  3178  3179     1
 2242  3181  3182     1
 2243  3181  3183     1
 2244  3182  3183     1
 2245  3185  3186     1
 2246  3185  3187     1
 2247  3186  3187     1
 2248  3189  3190     1
 2249  3189  3191     1
 2250  3190  3191     1
 2251  3193  3194     1
 2252  3193  3195     1
 2253  3194  3195     1
 2254  3197  3198     1
 2255  3197  3199     1
 2256  3198  3199     1
 2257  3201  3202     1
 2258  3201  3203     1
 2259  3202  3203     1
 2260  3205  3206     1
 2261  3205  3207     1
 2262  3206  3207     1
 2263  3209  3210     1
 2264  3209  3211     1
 2265  3210  3211     1
 2266  3213  3214     1
 2267  3213  3215     1
 2268  3214  3215     1
 2269  3217  3218     1
 2270  3217  3219     1
 2271  3218  3219     1
 2272  3221  3222     1
 2273  3221  3223     1
 2274  3222  3223     1
 2275  3225  3226     1
 2276  3225  3227     1
 2277  3226  3227     1
 2278  3229  3230     1
 2279  3229  3231     1
 2280  3230  3231     1
 2281  3233  3234     1
 2282  3233  3235     1
 2283  3234  3235     1
 2284  3237  3238     1
 2285  3237  3239     1
 2286  3238  3239     1
 2287  3241  3242     1
 2288  3241  3243     1
 2289  3242  3243     1
 2290  3245  3246     1
 2291  3245  3247     1
 2292  3246  3247     1
 2293  3249  3250     1
 2294  3249  3251     1
 2295  3250  3251     1
 2296  3253  3254     1
 2297  3253  3255     1
 2298  3254  3255     1
 2299  3257  3258     1
 2300  3257  3259     1
 2301  3258  3259     1
 2302  3261  3262     1
 2303  3261  3263     1
 2304  3262  3263     1
 2305  3265  3266     1
 2306  3265  3267     1
 2307  3266  3267     1
 2308  3269  3270     1
 2309  3269  3271     1
 2310  3270  3271     1
 2311  3273  3274     1
 2312  3273  3275     1
 2313  3274  3275     1
 2314  3277  3278     1
 2315  3277  3279     1
 2316  3278  3279     1
 2317  3281  3282     1
 2318  3281  3283     1
 2319  3282  3283     1
 2320  3285  3286     1
 2321  3285  3287     1
 2322  3286  3287     1
 2323  3289  3290     1
 2324  3289  3291     1
 2325  3290  3291     1
 2326  3293  3294     1
 2327  3293  3295     1
 2328  3294  3295     1
 2329  3297  3298     1
 2330  3297  3299     1
 2331  3298  3299     1
 2332  3301  3302     1
 2333  3301  3303     1
 2334  3302  3303     1
 2335  3305  3306     1
 2336  3305  3307     1
 2337  3306  3307     1
 2338  3309  3310     1
 2339  3309  3311     1
 2340  3310  3311     1
 2341  3313  3314     1
 2342  3313  3315     1
 2343  3314  3315     1
 2344  3317  3318     1
 2345  3317  3319     1
 2346  3318  3319     1
 2347  3321  3322     1
 2348  3321  3323     1
 2349  3322  3323     1
 2350  3325  3326     1
 2351  3325  3327     1
 2352  3326  3327     1
 2353  3329  3330     1
 2354  3329  3331     1
 2355  3330  3331     1
 2356  3333  3334     1
 2357  3333  3335     1
 2358  3334  3335     1
 2359  3337  3338     1
 2360  3337  3339     1
 2361  3338  3339     1
 2362  3341  3342     1
 2363  3341  3343     1
 2364  3342  3343     1
 2365  3345  3346     1
 2366  3345  3347     1
 2367  3346  3347     1
 2368  3349  3350     1
 2369  3349  3351     1
 2370  3350  3351     1
 2371  3353  3354     1
 2372  3353  3355     1
 2373  3354  3355     1
 2374  3357  3358     1
 2375  3357  3359     1
 2376  3358  3359     1
 2377  3361  3362     1
 2378  3361  3363     1
 2379  3362  3363     1
 2380  3365  3366     1
 2381  3365  3367     1
 2382  3366  3367     1
 2383  3369  3370     1
 2384  3369  3371     1
 2385  3370  3371     1
 2386  3373  3374     1
 2387  3373  3375     1
 2388  3374  3375     1
 2389  3377  3378     1
 2390  3377  3379     1
 2391  3378  3379     1
 2392  3381  3382     1
 2393  3381  3383     1
 2394  3382  3383     1
 2395  3385  3386     1
 2396  3385  3387     1
 2397  3386  3387     1
 2398  3389  3390     1
 2399  3389  3391     1
 2400  3390  3391     1
 2401  3393  3394     1
 2402  3393  3395     1
 2403  3394  3395     1
 2404  3397  3398     1
 2405  3397  3399     1
 2406  3398  3399     1
 2407  3401  3402     1
 2408  3401  3403     1
 2409  3402  3403     1
 2410  3405  3406     1
 2411  3405  3407     1
 2412  3406  3407     1
 2413  3409  3410     1
 2414  3409  3411     1
 2415  3410  3411     1
 2416  3413  3414     1
 2417  3413  3415     1
 2418  3414  3415     1
 2419  3417  3418     1
 2420  3417  3419     1
 2421  3418  3419     1
 2422  3421  3422     1
 2423  3421  3423     1
 2424  3422  3423     1
 2425  3425  3426     1
 2426  3425  3427     1
 2427  3426  3427     1
 2428  3429  3430     1
 2429  3429  3431     1
 2430  3430  3431     1
 2431  3433  3434     1
 2432  3433  3435     1
 2433  3434  3435     1
 2434  3437  3438     1
 2435  3437  3439     1
 2436  3438  3439     1
 2437  3441  3442     1
 2438  3441  3443     1
 2439  3442  3443     1
 2440  3445  3446     1
 2441  3445  3447     1
 2442  3446  3447     1
 2443  3449  3450     1
 2444  3449  3451     1
 2445  3450  3451     1
 2446  3453  3454     1
 2447  3453  3455     1
 2448  3454  3455     1
 2449  3457  3458     1
 2450  3457  3459     1
 2451  3458  3459     1
 2452  3461  3462     1
 2453  3461  3463     1
 2454  3462  3463     1
 2455  3465  3466     1
 2456  3465  3467     1
 2457  3466  3467     1
 2458  3469  3470     1
 2459  3469  3471     1
 2460  3470  3471     1
 2461  3473  3474     1
 2462  3473  3475     1
 2463  3474  3475     1
 2464  3477  3478     1
 2465  3477  3479     1
 2466  3478  3479     1
 2467  3481  3482     1
 2468  3481  3483     1
 2469  3482  3483     1
 2470  3485  3486     1
 2471  3485  3487     1
 2472  3486  3487     1
 2473  3489  3490     1
 2474  3489  3491     1
 2475  3490  3491     1
 2476  3493  3494     1
 2477  3493  3495     1
 2478  3494  3495     1
 2479  3497  3498     1
 2480  3497  3499     1
 2481  3498  3499     1
 2482  3501  3502     1
 2483  3501  3503     1
 2484  3502  3503     1
 2485  3505  3506     1
 2486  3505  3507     1
 2487  3506  3507     1
 2488  3509  3510     1
 2489  3509  3511     1
 2490  3510  3511     1
 2491  3513  3514     1
 2492  3513  3515     1
 2493  3514  3515     1
 2494  3517  3518     1
 2495  3517  3519     1
 2496  3518  3519     1
 2497  3521  3522     1
 2498  3521  3523     1
 2499  3522  3523     1
 2500  3525  3526     1
 2501  3525  3527     1
 2502  3526  3527     1
 2503  3529  3530     1
 2504  3529  3531     1
 2505  3530  3531     1
 2506  3533  3534     1
 2507  3533  3535     1
 2508  3534  3535     1
 2509  3537  3538     1
 2510  3537  3539     1
 2511  3538  3539     1
 2512  3541  3542     1
 2513  3541  3543     1
 2514  3542  3543     1
 2515  3545  3546     1
 2516  3545  3547     1
 2517  3546  3547     1
 2518  3549  3550     1
 2519  3549  3551     1
 2520  3550  3551     1
 2521  3553  3554     1
 2522  3553  3555     1
 2523  3554  3555     1
 2524  3557  3558     1
 2525  3557  3559     1
 2526  3558  3559     1
 2527  3561  3562     1
 2528  3561  3563     1
 2529  3562  3563     1
 2530  3565  3566     1
 2531  3565  3567     1
 2532  3566  3567     1
 2533  3569  3570     1
 2534  3569  3571     1
 2535  3570  3571     1
 2536  3573  3574     1
 2537  3573  3575     1
 2538  3574  3575     1
 2539  3577  3578     1
 2540  3577  3579     1
 2541  3578  3579     1
 2542  3581  3582     1
 2543  3581  3583     1
 2544  3582  3583     1
 2545  3585  3586     1
 2546  3585  3587     1
 2547  3586  3587     1
 2548  3589  3590     1
 2549  3589  3591     1
 2550  3590  3591     1
 2551  3593  3594     1
 2552  3593  3595     1
 2553  3594  3595     1
 2554  3597  3598     1
 2555  3597  3599     1
 2556  3598  3599     1
 2557  3601  3602     1
 2558  3601  3603     1
 2559  3602  3603     1
 2560  3605  3606     1
 2561  3605  3607     1
 2562  3606  3607     1
 2563  3609  3610     1
 2564  3609  3611     1
 2565  3610  3611     1
 2566  3613  3614     1
 2567  3613  3615     1
 2568  3614  3615     1
 2569  3617  3618     1
 2570  3617  3619     1
 2571  3618  3619     1
 2572  3621  3622     1
 2573  3621  3623     1
 2574  3622  3623     1
 2575  3625  3626     1
 2576  3625  3627     1
 2577  3626  3627     1
 2578  3629  3630     1
 2579  3629  3631     1
 2580  3630  3631     1
 2581  3633  3634     1
 2582  3633  3635     1
 2583  3634  3635     1
 2584  3637  3638     1
 2585  3637  3639     1
 2586  3638  3639     1
 2587  3641  3642     1
 2588  3641  3643     1
 2589  3642  3643     1
 2590  3645  3646     1
 2591  3645  3647     1
 2592  3646  3647     1
 2593  3649  3650     1
 2594  3649  3651     1
 2595  3650  3651     1
 2596  3653  3654     1
 2597  3653  3655     1
 2598  3654  3655     1
 2599  3657  3658     1
 2600  3657  3659     1
 2601  3658  3659     1
 2602  3661  3662     1
 2603  3661  3663     1
 2604  3662  3663     1
 2605  3665  3666     1
 2606  3665  3667     1
 2607  3666  3667     1
 2608  3669  3670     1
 2609  3669  3671     1
 2610  3670  3671     1
 2611  3673  3674     1
 2612  3673  3675     1
 2613  3674  3675     1
 2614  3677  3678     1
 2615  3677  3679     1
 2616  3678  3679     1
 2617  3681  3682     1
 2618  3681  3683     1
 2619  3682  3683     1
 2620  3685  3686     1
 2621  3685  3687     1
 2622  3686  3687     1
 2623  3689  3690     1
 2624  3689  3691     1
 2625  3690  3691     1
 2626  3693  3694     1
 2627  3693  3695     1
 2628  3694  3695     1
 2629  3697  3698     1
 2630  3697  3699     1
 2631  3698  3699     1
 2632  3701  3702     1
 2633  3701  3703     1
 2634  3702  3703     1
 2635  3705  3706     1
 2636  3705  3707     1
 2637  3706  3707     1
 2638  3709  3710     1
 2639  3709  3711     1
 2640  3710  3711     1
 2641  3713  3714     1
 2642  3713  3715     1
 2643  3714  3715     1
 2644  3717  3718     1
 2645  3717  3719     1
 2646  3718  3719     1
 2647  3721  3722     1
 2648  3721  3723     1
 2649  3722  3723     1
 2650  3725  3726     1
 2651  3725  3727     1
 2652  3726  3727     1
 2653  3729  3730     1
 2654  3729  3731     1
 2655  3730  3731     1
 2656  3733  3734     1
 2657  3733  3735     1
 2658  3734  3735     1
 2659  3737  3738     1
 2660  3737  3739     1
 2661  3738  3739     1
 2662  3741  3742     1
 2663  3741  3743     1
 2664  3742  3743     1
 2665  3745  3746     1
 2666  3745  3747     1
 2667  3746  3747     1
 2668  3749  3750     1
 2669  3749  3751     1
 2670  3750  3751     1
 2671  3753  3754     1
 2672  3753  3755     1
 2673  3754  3755     1
 2674  3757  3758     1
 2675  3757  3759     1
 2676  3758  3759     1
 2677  3761  3762     1
 2678  3761  3763     1
 2679  3762  3763     1
 2680  3765  3766     1
 2681  3765  3767     1
 2682  3766  3767     1
 2683  3769  3770     1
 2684  3769  3771     1
 2685  3770  3771     1
 2686  3773  3774     1
 2687  3773  3775     1
 2688  3774  3775     1
 2689  3777  3778     1
 2690  3777  3779     1
 2691  3778  3779     1
 2692  3781  3782     1
 2693  3781  3783     1
 2694  3782  3783     1
 2695  3785  3786     1
 2696  3785  3787     1
 2697  3786  3787     1
 2698  3789  3790     1
 2699  3789  3791     1
 2700  3790  3791     1
 2701  3793  3794     1
 2702  3793  3795     1
 2703  3794  3795     1
 2704  3797  3798     1
 2705  3797  3799     1
 2706  3798  3799     1
 2707  3801  3802     1
 2708  3801  3803     1
 2709  3802  3803     1
 2710  3805  3806     1
 2711  3805  3807     1
 2712  3806  3807     1
 2713  3809  3810     1
 2714  3809  3811     1
 2715  3810  3811     1
 2716  3813  3814     1
 2717  3813  3815     1
 2718  3814  3815     1
 2719  3817  3818     1
 2720  3817  3819     1
 2721  3818  3819     1
 2722  3821  3822     1
 2723  3821  3823     1
 2724  3822  3823     1
 2725  3825  3826     1
 2726  3825  3827     1
 2727  3826  3827     1
 2728  3829  3830     1
 2729  3829  3831     1
 2730  3830  3831     1
 2731  3833  3834     1
 2732  3833  3835     1
 2733  3834  3835     1
 2734  3837  3838     1
 2735  3837  3839     1
 2736  3838  3839     1
 2737  3841  3842     1
 2738  3841  3843     1
 2739  3842  3843     1
 2740  3845  3846     1
 2741  3845  3847     1
 2742  3846  3847     1
 2743  3849  3850     1
 2744  3849  3851     1
 2745  3850  3851     1
 2746  3853  3854     1
 2747  3853  3855     1
 2748  3854  3855     1
 2749  3857  3858     1
 2750  3857  3859     1
 2751  3858  3859     1
 2752  3861  3862     1
 2753  3861  3863     1
 2754  3862  3863     1
 2755  3865  3866     1
 2756  3865  3867     1
 2757  3866  3867     1
 2758  3869  3870     1
 2759  3869  3871     1
 2760  3870  3871     1
 2761  3873  3874     1
 2762  3873  3875     1
 2763  3874  3875     1
 2764  3877  3878     1
 2765  3877  3879     1
 2766  3878  3879     1
 2767  3881  3882     1
 2768  3881  3883     1
 2769  3882  3883     1
 2770  3885  3886     1
 2771  3885  3887     1
 2772  3886  3887     1
 2773  3889  3890     1
 2774  3889  3891     1
 2775  3890  3891     1
 2776  3893  3894     1
 2777  3893  3895     1
 2778  3894  3895     1
 2779  3897  3898     1
 2780  3897  3899     1
 2781  3898  3899     1
 2782  3901  3902     1
 2783  3901  3903     1
 2784  3902  3903     1
 2785  3905  3906     1
 2786  3905  3907     1
 2787  3906  3907     1
 2788  3909  3910     1
 2789  3909  3911     1
 2790  3910  3911     1
 2791  3913  3914     1
 2792  3913  3915     1
 2793  3914  3915     1
 2794  3917  3918     1
 2795  3917  3919     1
 2796  3918  3919     1
 2797  3921  3922     1
 2798  3921  3923     1
 2799  3922  3923     1
 2800  3925  3926     1
 2801  3925  3927     1
 2802  3926  3927     1
 2803  3929  3930     1
 2804  3929  3931     1
 2805  3930  3931     1
 2806  3933  3934     1
 2807  3933  3935     1
 2808  3934  3935     1
 2809  3937  3938     1
 2810  3937  3939     1
 2811  3938  3939     1
 2812  3941  3942     1
 2813  3941  3943     1
 2814  3942  3943     1
 2815  3945  3946     1
 2816  3945  3947     1
 2817  3946  3947     1
 2818  3949  3950     1
 2819  3949  3951     1
 2820  3950  3951     1
 2821  3953  3954     1
 2822  3953  3955     1
 2823  3954  3955     1
 2824  3957  3958     1
 2825  3957  3959     1
 2826  3958  3959     1
 2827  3961  3962     1
 2828  3961  3963     1
 2829  3962  3963     1
 2830  3965  3966     1
 2831  3965  3967     1
 2832  3966  3967     1
 2833  3969  3970     1
 2834  3969  3971     1
 2835  3970  3971     1
 2836  3973  3974     1
 2837  3973  3975     1
 2838  3974  3975     1
 2839  3977  3978     1
 2840  3977  3979     1
 2841  3978  3979     1
 2842  3981  3982     1
 2843  3981  3983     1
 2844  3982  3983     1
 2845  3985  3986     1
 2846  3985  3987     1
 2847  3986  3987     1
 2848  3989  3990     1
 2849  3989  3991     1
 2850  3990  3991     1
 2851  3993  3994     1
 2852  3993  3995     1
 2853  3994  3995     1
 2854  3997  3998     1
 2855  3997  3999     1
 2856  3998  3999     1
 2857  4001  4002     1
 2858  4001  4003     1
 2859  4002  4003     1
 2860  4005  4006     1
 2861  4005  4007     1
 2862  4006  4007     1
 2863  4009  4010     1
 2864  4009  4011     1
 2865  4010  4011     1
 2866  4013  4014     1
 2867  4013  4015     1
 2868  4014  4015     1
 2869  4017  4018     1
 2870  4017  4019     1
 2871  4018  4019     1
 2872  4021  4022     1
 2873  4021  4023     1
 2874  4022  4023     1
 2875  4025  4026     1
 2876  4025  4027     1
 2877  4026  4027     1
 2878  4029  4030     1
 2879  4029  4031     1
 2880  4030  4031     1
 2881  4033  4034     1
 2882  4033  4035     1
 2883  4034  4035     1
 2884  4037  4038     1
 2885  4037  4039     1
 2886  4038  4039     1
 2887  4041  4042     1
 2888  4041  4043     1
 2889  4042  4043     1
 2890  4045  4046     1
 2891  4045  4047     1
 2892  4046  4047     1
 2893  4049  4050     1
 2894  4049  4051     1
 2895  4050  4051     1
 2896  4053  4054     1
 2897  4053  4055     1
 2898  4054  4055     1
 2899  4057  4058     1
 2900  4057  4059     1
 2901  4058  4059     1
 2902  4061  4062     1
 2903  4061  4063     1
 2904  4062  4063     1
 2905  4065  4066     1
 2906  4065  4067     1
 2907  4066  4067     1
 2908  4069  4070     1
 2909  4069  4071     1
 2910  4070  4071     1
 2911  4073  4074     1
 2912  4073  4075     1
 2913  4074  4075     1
 2914  4077  4078     1
 2915  4077  4079     1
 2916  4078  4079     1
 2917  4081  4082     1
 2918  4081  4083     1
 2919  4082  4083     1
 2920  4085  4086     1
 2921  4085  4087     1
 2922  4086  4087     1
 2923  4089  4090     1
 2924  4089  4091     1
 2925  4090  4091     1
 2926  4093  4094     1
 2927  4093  4095     1
 2928  4094  4095     1
 2929  4097  4098     1
 2930  4097  4099     1
 2931  4098  4099     1
 2932  4101  4102     1
 2933  4101  4103     1
 2934  4102  4103     1
 2935  4105  4106     1
 2936  4105  4107     1
 2937  4106  4107     1
 2938  4109  4110     1
 2939  4109  4111     1
 2940  4110  4111     1
 2941  4113  4114     1
 2942  4113  4115     1
 2943  4114  4115     1
 2944  4117  4118     1
 2945  4117  4119     1
 2946  4118  4119     1
 2947  4121  4122     1
 2948  4121  4123     1
 2949  4122  4123     1
 2950  4125  4126     1
 2951  4125  4127     1
 2952  4126  4127     1
 2953  4129  4130     1
 2954  4129  4131     1
 2955  4130  4131     1
 2956  4133  4134     1
 2957  4133  4135     1
 2958  4134  4135     1
 2959  4137  4138     1
 2960  4137  4139     1
 2961  4138  4139     1
 2962  4141  4142     1
 2963  4141  4143     1
 2964  4142  4143     1
 2965  4145  4146     1
 2966  4145  4147     1
 2967  4146  4147     1
 2968  4149  4150     1
 2969  4149  4151     1
 2970  4150  4151     1
 2971  4153  4154     1
 2972  4153  4155     1
 2973  4154  4155     1
 2974  4157  4158     1
 2975  4157  4159     1
 2976  4158  4159     1
 2977  4161  4162     1
 2978  4161  4163     1
 2979  4162  4163     1
 2980  4165  4166     1
 2981  4165  4167     1
 2982  4166  4167     1
 2983  4169  4170     1
 2984  4169  4171     1
 2985  4170  4171     1
 2986  4173  4174     1
 2987  4173  4175     1
 2988  4174  4175     1
 2989  4177  4178     1
 2990  4177  4179     1
 2991  4178  4179     1
 2992  4181  4182     1
 2993  4181  4183     1
 2994  4182  4183     1
 2995  4185  4186     1
 2996  4185  4187     1
 2997  4186  4187     1
 2998  4189  4190     1
 2999  4189  4191     1
 3000  4190  4191     1
 3001  4193  4194     1
 3002  4193  4195     1
 3003  4194  4195     1
 3004  4197  4198     1
 3005  4197  4199     1
 3006  4198  4199     1
 3007  4201  4202     1
 3008  4201  4203     1
 3009  4202  4203     1
 3010  4205  4206     1
 3011  4205  4207     1
 3012  4206  4207     1
 3013  4209  4210     1
 3014  4209  4211     1
 3015  4210  4211     1
 3016  4213  4214     1
 3017  4213  4215     1
 3018  4214  4215     1
 3019  4217  4218     1
 3020  4217  4219     1
 3021  4218  4219     1
 3022  4221  4222     1
 3023  4221  4223     1
 3024  4222  4223     1
 3025  4225  4226     1
 3026  4225  4227     1
 3027  4226  4227     1
 3028  4229  4230     1
 3029  4229  4231     1
 3030  4230  4231     1
 3031  4233  4234     1
 3032  4233  4235     1
 3033  4234  4235     1
 3034  4237  4238     1
 3035  4237  4239     1
 3036  4238  4239     1
 3037  4241  4242     1
 3038  4241  4243     1
 3039  4242  4243     1
 3040  4245  4246     1
 3041  4245  4247     1
 3042  4246  4247     1
 3043  4249  4250     1
 3044  4249  4251     1
 3045  4250  4251     1
 3046  4253  4254     1
 3047  4253  4255     1
 3048  4254  4255     1
 3049  4257  4258     1
 3050  4257  4259     1
 3051  4258  4259     1
 3052  4261  4262     1
 3053  4261  4263     1
 3054  4262  4263     1
 3055  4265  4266     1
 3056  4265  4267     1
 3057  4266  4267     1
 3058  4269  4270     1
 3059  4269  4271     1
 3060  4270  4271     1
 3061  4273  4274     1
 3062  4273  4275     1
 3063  4274  4275     1
 3064  4277  4278     1
 3065  4277  4279     1
 3066  4278  4279     1
 3067  4281  4282     1
 3068  4281  4283     1
 3069  4282  4283     1
 3070  4285  4286     1
 3071  4285  4287     1
 3072  4286  4287     1
 3073  4289  4290     1
 3074  4289  4291     1
 3075  4290  4291     1
 3076  4293  4294     1
 3077  4293  4295     1
 3078  4294  4295     1
 3079  4297  4298     1
 3080  4297  4299     1
 3081  4298  4299     1
 3082  4301  4302     1
 3083  4301  4303     1
 3084  4302  4303     1
 3085  4305  4306     1
 3086  4305  4307     1
 3087  4306  4307     1
 3088  4309  4310     1
 3089  4309  4311     1
 3090  4310  4311     1
 3091  4313  4314     1
 3092  4313  4315     1
 3093  4314  4315     1
 3094  4317  4318     1
 3095  4317  4319     1
 3096  4318  4319     1
 3097  4321  4322     1
 3098  4321  4323     1
 3099  4322  4323     1
 3100  4325  4326     1
 3101  4325  4327     1
 3102  4326  4327     1
 3103  4329  4330     1
 3104  4329  4331     1
 3105  4330  4331     1
 3106  4333  4334     1
 3107  4333  4335     1
 3108  4334  4335     1
 3109  4337  4338     1
 3110  4337  4339     1
 3111  4338  4339     1
 3112  4341  4342     1
 3113  4341  4343     1
 3114  4342  4343     1
 3115  4345  4346     1
 3116  4345  4347     1
 3117  4346  4347     1
 3118  4349  4350     1
 3119  4349  4351     1
 3120  4350  4351     1
 3121  4353  4354     1
 3122  4353  4355     1
 3123  4354  4355     1
 3124  4357  4358     1
 3125  4357  4359     1
 3126  4358  4359     1
 3127  4361  4362     1
 3128  4361  4363     1
 3129  4362  4363     1
 3130  4365  4366     1
 3131  4365  4367     1
 3132  4366  4367     1
 3133  4369  4370     1
 3134  4369  4371     1
 3135  4370  4371     1
 3136  4373  4374     1
 3137  4373  4375     1
 3138  4374  4375     1
 3139  4377  4378     1
 3140  4377  4379     1
 3141  4378  4379     1
 3142  4381  4382     1
 3143  4381  4383     1
 3144  4382  4383     1
 3145  4385  4386     1
 3146  4385  4387     1
 3147  4386  4387     1
 3148  4389  4390     1
 3149  4389  4391     1
 3150  4390  4391     1
 3151  4393  4394     1
 3152  4393  4395     1
 3153  4394  4395     1
 3154  4397  4398     1
 3155  4397  4399     1
 3156  4398  4399     1
 3157  4401  4402     1
 3158  4401  4403     1
 3159  4402  4403     1
 3160  4405  4406     1
 3161  4405  4407     1
 3162  4406  4407     1
 3163  4409  4410     1
 3164  4409  4411     1
 3165  4410  4411     1
 3166  4413  4414     1
 3167  4413  4415     1
 3168  4414  4415     1
 3169  4417  4418     1
 3170  4417  4419     1
 3171  4418  4419     1
 3172  4421  4422     1
 3173  4421  4423     1
 3174  4422  4423     1
 3175  4425  4426     1
 3176  4425  4427     1
 3177  4426  4427     1
 3178  4429  4430     1
 3179  4429  4431     1
 3180  4430  4431     1
 3181  4433  4434     1
 3182  4433  4435     1
 3183  4434  4435     1
 3184  4437  4438     1
 3185  4437  4439     1
 3186  4438  4439     1
 3187  4441  4442     1
 3188  4441  4443     1
 3189  4442  4443     1
 3190  4445  4446     1
 3191  4445  4447     1
 3192  4446  4447     1
 3193  4449  4450     1
 3194  4449  4451     1
 3195  4450  4451     1
 3196  4453  4454     1
 3197  4453  4455     1
 3198  4454  4455     1
 3199  4457  4458     1
 3200  4457  4459     1
 3201  4458  4459     1
 3202  4461  4462     1
 3203  4461  4463     1
 3204  4462  4463     1
 3205  4465  4466     1
 3206  4465  4467     1
 3207  4466  4467     1
 3208  4469  4470     1
 3209  4469  4471     1
 3210  4470  4471     1
 3211  4473  4474     1
 3212  4473  4475     1
 3213  4474  4475     1
 3214  4477  4478     1
 3215  4477  4479     1
 3216  4478  4479     1
 3217  4481  4482     1
 3218  4481  4483     1
 3219  4482  4483     1
 3220  4485  4486     1
 3221  4485  4487     1
 3222  4486  4487     1
 3223  4489  4490     1
 3224  4489  4491     1
 3225  4490  4491     1
 3226  4493  4494     1
 3227  4493  4495     1
 3228  4494  4495     1
 3229  4497  4498     1
 3230  4497  4499     1
 3231  4498  4499     1
 3232  4501  4502     1
 3233  4501  4503     1
 3234  4502  4503     1
 3235  4505  4506     1
 3236  4505  4507     1
 3237  4506  4507     1
 3238  4509  4510     1
 3239  4509  4511     1
 3240  4510  4511     1
 3241  4513  4514     1
 3242  4513  4515     1
 3243  4514  4515     1
 3244  4517  4518     1
 3245  4517  4519     1
 3246  4518  4519     1
 3247  4521  4522     1
 3248  4521  4523     1
 3249  4522  4523     1
 3250  4525  4526     1
 3251  4525  4527     1
 3252  4526  4527     1
 3253  4529  4530     1
 3254  4529  4531     1
 3255  4530  4531     1
 3256  4533  4534     1
 3257  4533  4535     1
 3258  4534  4535     1
 3259  4537  4538     1
 3260  4537  4539     1
 3261  4538  4539     1
 3262  4541  4542     1
 3263  4541  4543     1
 3264  4542  4543     1
 3265  4545  4546     1
 3266  4545  4547     1
 3267  4546  4547     1
 3268  4549  4550     1
 3269  4549  4551     1
 3270  4550  4551     1
 3271  4553  4554     1
 3272  4553  4555     1
 3273  4554  4555     1
 3274  4557  4558     1
 3275  4557  4559     1
 3276  4558  4559     1
 3277  4561  4562     1
 3278  4561  4563     1
 3279  4562  4563     1
 3280  4565  4566     1
 3281  4565  4567     1
 3282  4566  4567     1
 3283  4569  4570     1
 3284  4569  4571     1
 3285  4570  4571     1
 3286  4573  4574     1
 3287  4573  4575     1
 3288  4574  4575     1
 3289  4577  4578     1
 3290  4577  4579     1
 3291  4578  4579     1
 3292  4581  4582     1
 3293  4581  4583     1
 3294  4582  4583     1
 3295  4585  4586     1
 3296  4585  4587     1
 3297  4586  4587     1
 3298  4589  4590     1
 3299  4589  4591     1
 3300  4590  4591     1
 3301  4593  4594     1
 3302  4593  4595     1
 3303  4594  4595     1
 3304  4597  4598     1
 3305  4597  4599     1
 3306  4598  4599     1
 3307  4601  4602     1
 3308  4601  4603     1
 3309  4602  4603     1
 3310  4605  4606     1
 3311  4605  4607     1
 3312  4606  4607     1
